warn: Base 10 memory/cache size 8GB will be cast to base 2 size 8GiB.
warn: Base 10 memory/cache size 32kB will be cast to base 2 size 32KiB.
warn: Base 10 memory/cache size 32kB will be cast to base 2 size 32KiB.
warn: Base 10 memory/cache size 512kB will be cast to base 2 size 512KiB.
warn: Base 10 memory/cache size 32MB will be cast to base 2 size 32MiB.
warn: Base 10 memory/cache size 512MB will be cast to base 2 size 512MiB.
Global frequency set at 1000000000000 ticks per second
warn: No dot file generated. Please install pydot to generate the dot file and pdf.
src/mem/dram_interface.cc:690: warn: DRAM device capacity (16384 Mbytes) does not match the address range assigned (8192 Mbytes)
src/base/statistics.hh:279: warn: One of the stats is a legacy stat. Legacy stat is a stat that does not belong to any statistics::Group. Legacy stat is deprecated.
src/base/stats/storage.hh:278: warn: Bucket size (4) does not divide range [1:32] into equal-sized buckets. Rounding up.
src/base/stats/storage.hh:278: warn: Bucket size (4) does not divide range [1:8] into equal-sized buckets. Rounding up.
system.remote_gdb: Listening for connections on port 7000
gem5 Simulator System.  https://www.gem5.org
gem5 is copyrighted software; use the --copyright option for details.

gem5 version 25.1.0.0
gem5 compiled Apr  4 2026 22:44:57
gem5 started Apr 17 2026 14:01:49
gem5 executing on c306-005.ls6.tacc.utexas.edu, pid 3269628
command line: ../gem5/build/X86/gem5.opt --outdir=../data/gem5/fft_large ../config/perftrain/zen3_config.py --bin=../benchmarks/bin/mibench/fft '--opts=8 32768' --max_insts=0

=== Starting simulation ===
  Binary: ../benchmarks/bin/mibench/fft
  Args:   8 32768
  CPU:    O3CPU @ 2.45 GHz (Zen 3 Configuration)
Warming up for 10,000,000 instructions...
src/sim/mem_state.cc:443: info: Increasing stack size by one page.
src/sim/syscall_emul.hh:1127: warn: readlink() called on '/proc/self/exe' may yield unexpected results in various settings.
      Returning '/work/10492/bv6788/ls6/CPU_PERF_EVAL/FINAL_PROJECT/benchmarks/bin/mibench/fft'
Warmup done: a thread reached the max instruction count
Starting measured run of ../benchmarks/bin/mibench/fft ...
RealOut:
155932.531250 	-8377.400391 	-14730.470703 	128025.171875 	144163.937500 	-197443.906250 	-72681.515625 	11157.218750 	25099.328125 	97275.234375 	-150428.343750 	54935.597656 	-2992.082031 	97651.867188 	69953.953125 	249246.984375 	69373.617188 	187067.593750 	80430.523438 	195624.765625 	-106642.937500 	123027.921875 	-32358.544922 	-95011.453125 	163960.218750 	-53389.058594 	176978.984375 	-54607.968750 	143986.937500 	-149131.656250 	30347.875000 	-22431.253906 	-98696.968750 	-33611.843750 	60293.234375 	-14673.060547 	57975.074219 	43288.027344 	-107136.406250 	102046.679688 	59366.023438 	-181975.937500 	124521.281250 	189759.203125 	-52872.593750 	41678.570312 	243331.359375 	157597.671875 	371801.750000 	-241941.343750 	112698.585938 	107146.687500 	21620.207031 	105678.226562 	13340.055664 	-52133.707031 	235416.828125 	140694.156250 	84336.820312 	-33394.218750 	146195.234375 	158171.468750 	45557.316406 	78848.289062 	83276.750000 	-67741.203125 	-41910.246094 	-63640.171875 	103913.382812 	-5655.166992 	104591.109375 	-24045.498047 	-225553.343750 	71220.835938 	101598.632812 	314615.906250 	61487.660156 	98688.492188 	-2120.916260 	133736.203125 	-83650.023438 	-37613.804688 	58124.167969 	-20105.498047 	-54930.121094 	-23995.421875 	110208.648438 	97514.335938 	136719.750000 	77965.046875 	-57370.265625 	-78789.351562 	106079.789062 	-675.928406 	230105.468750 	-91546.250000 	-71646.296875 	74538.890625 	52693.867188 	-81156.617188 	130369.210938 	-184959.484375 	-20947.767578 	49336.074219 	-99965.406250 	235578.515625 	67108.664062 	28479.812500 	127663.328125 	30578.291016 	-37360.117188 	107374.281250 	-177872.968750 	-22630.578125 	33876.593750 	75075.062500 	-150324.734375 	-69646.906250 	62235.242188 	105876.843750 	-86056.648438 	108115.562500 	-76878.992188 	-32376.873047 	31188.164062 	217489.828125 	-29504.619141 	141862.296875 	258872.609375 	174632.000000 	-108280.000000 	113187.968750 	-52551.953125 	121331.109375 	55071.660156 	99234.257812 	255270.328125 	290450.968750 	1076073.000000 	-1820153.750000 	-582141.562500 	-522168.656250 	-186209.171875 	-137723.718750 	-12159.110352 	-221391.578125 	-232032.375000 	-33137.226562 	-100345.265625 	96825.984375 	95641.921875 	-100014.945312 	-81117.460938 	-199760.171875 	-126573.218750 	-45692.843750 	-196569.609375 	-91362.203125 	-279719.562500 	49812.980469 	-102652.875000 	-120571.843750 	-23660.863281 	-9293.708984 	-78010.992188 	139495.484375 	-92815.679688 	7671.373535 	-61083.359375 	27848.935547 	4576.624512 	-31913.394531 	141906.093750 	18092.517578 	-92253.851562 	-113605.609375 	150184.437500 	181662.250000 	77677.726562 	107954.132812 	104560.718750 	83152.109375 	-203272.343750 	-169329.562500 	108649.859375 	-43505.945312 	-143287.500000 	257749.671875 	252994.062500 	-169963.109375 	-100755.140625 	180397.937500 	-2878.898438 	130358.671875 	3436.063477 	-40065.367188 	-38665.265625 	-219169.187500 	20094.179688 	85818.742188 	-43136.378906 	-98773.210938 	14154.683594 	-144775.406250 	-33500.261719 	11437.314453 	-42434.390625 	-65983.242188 	239880.765625 	-165241.734375 	30158.402344 	26466.679688 	40526.777344 	172609.000000 	-78132.031250 	-22987.306641 	191095.265625 	-114817.484375 	2148.648682 	-17826.488281 	57332.921875 	-183164.640625 	204364.250000 	-59277.199219 	-68257.546875 	22270.412109 	110754.593750 	-198435.765625 	-52774.074219 	113946.070312 	-248778.875000 	-56037.945312 	80584.179688 	-20408.466797 	-26439.365234 	178573.843750 	7198.108887 	229207.078125 	107947.859375 	-99630.242188 	92563.304688 	-75140.796875 	48097.484375 	95715.750000 	-171023.500000 	-147629.796875 	-260302.531250 	54928.980469 	-98260.656250 	-137081.031250 	-221969.390625 	33540.906250 	85128.820312 	44224.382812 	72175.851562 	-178653.796875 	114044.882812 	57590.218750 	-64632.320312 	-90257.500000 	161178.843750 	152802.421875 	-172029.656250 	32546.843750 	28365.664062 	-90858.203125 	146028.609375 	2485.438965 	-107974.890625 	31899.527344 	-235841.562500 	-32558.126953 	-200447.156250 	105361.125000 	337561.968750 	-87962.000000 	-109809.750000 	63495.832031 	93936.890625 	-97207.398438 	34060.765625 	29491.355469 	97860.273438 	126089.078125 	-92940.257812 	-66919.757812 	-36997.523438 	-35263.519531 	27299.349609 	31106.109375 	186946.703125 	-15683.234375 	-146014.765625 	23144.785156 	60446.949219 	67092.210938 	115928.476562 	-13243.833984 	-249013.125000 	115489.000000 	-88214.546875 	109065.867188 	-38114.320312 	-21459.214844 	103901.148438 	-43603.183594 	72463.750000 	-120926.062500 	-41046.117188 	-156233.796875 	89798.101562 	3785.651367 	69659.546875 	-103508.398438 	-115733.585938 	40838.828125 	-150441.687500 	73778.593750 	-16433.552734 	-39339.773438 	-13597.203125 	-52421.742188 	90050.437500 	25993.337891 	178329.312500 	78321.968750 	140614.375000 	230272.906250 	-68180.906250 	1345.097412 	-13299.962891 	107738.437500 	-140934.296875 	24819.253906 	46117.812500 	8446.958008 	290968.625000 	28752.492188 	-218435.921875 	-62846.011719 	149062.015625 	42240.347656 	-2772.385498 	-37262.914062 	-21998.380859 	89239.070312 	69495.492188 	-72495.304688 	131536.656250 	54896.929688 	159852.906250 	54274.132812 	-26840.535156 	45929.820312 	45116.878906 	24798.808594 	21113.470703 	34450.000000 	206837.171875 	-18095.044922 	91614.328125 	42057.070312 	33728.414062 	183635.828125 	72851.000000 	80791.375000 	-29943.482422 	235242.890625 	404619.343750 	899992.687500 	-1435004.625000 	-343724.875000 	-376759.500000 	-93980.015625 	-192640.359375 	-2792.235352 	146517.546875 	-130792.304688 	-152503.062500 	2775.251709 	-192024.593750 	-43821.359375 	-196380.453125 	-186226.281250 	-121886.117188 	40351.019531 	13192.744141 	-36857.789062 	34186.496094 	-208840.406250 	-62930.363281 	178747.515625 	-148923.156250 	-50533.191406 	-124811.226562 	-651.825562 	14919.699219 	159772.937500 	-136058.968750 	3857.443115 	-19673.904297 	132302.609375 	-99231.625000 	178149.234375 	-272990.968750 	-169653.640625 	90386.203125 	-144115.500000 	-4674.318359 	-53991.414062 	-47347.324219 	37606.371094 	36661.414062 	-75582.476562 	49697.394531 	-117891.359375 	-64201.652344 	-205519.828125 	-28520.626953 	-45237.937500 	204185.718750 	-239543.671875 	-102221.187500 	80138.414062 	-216286.250000 	-72347.101562 	-30584.763672 	-7056.134277 	19191.552734 	-189418.015625 	-59058.062500 	-9062.455078 	-69602.804688 	-19710.435547 	-41870.394531 	17906.076172 	54234.636719 	-9144.881836 	184948.187500 	-50249.468750 	96233.679688 	-23758.416016 	-120859.304688 	-93458.968750 	-8002.980469 	-135817.265625 	55830.347656 	-38936.316406 	-27496.542969 	-108300.257812 	-120759.109375 	-93150.781250 	-32161.574219 	-169966.484375 	337741.531250 	-93161.203125 	-44021.691406 	-112582.031250 	120700.343750 	-42144.128906 	-13031.820312 	94253.085938 	-16003.057617 	-1551.173340 	-18185.960938 	-170599.515625 	29390.470703 	-69634.250000 	-70601.726562 	279268.343750 	-27773.523438 	-77047.929688 	51977.425781 	109571.554688 	183494.812500 	47237.980469 	65381.128906 	-84198.875000 	-147390.843750 	5523.502930 	-142896.593750 	235798.265625 	86363.242188 	15825.987305 	-73805.234375 	167403.671875 	203164.687500 	75710.585938 	86086.023438 	-168338.406250 	-115971.000000 	68567.132812 	79348.367188 	253149.890625 	-103806.742188 	-11380.756836 	-19199.066406 	66864.781250 	-218230.781250 	-90339.257812 	-141072.640625 	28971.933594 	65784.882812 	-87234.468750 	-113462.976562 	-28687.171875 	120668.859375 	10151.711914 	68727.187500 	60503.398438 	12100.157227 	-50412.816406 	80871.710938 	85.520699 	44550.363281 	69843.148438 	62741.039062 	-12681.480469 	86848.664062 	132242.000000 	223772.125000 	-5181.152832 	-41442.886719 	-182567.125000 	20811.009766 	16066.854492 	-7314.473633 	66922.125000 	-34303.710938 	78714.718750 	77866.921875 	136602.765625 	7207.729004 	-94091.046875 	219862.906250 	-65514.800781 	-66616.820312 	23433.578125 	-35745.242188 	126198.828125 	233557.187500 	-76202.093750 	-145069.187500 	-34704.351562 	-118154.984375 	-8812.650391 	13449.288086 	42186.742188 	-18654.685547 	155573.546875 	-252629.578125 	14755.821289 	155782.156250 	22458.160156 	-67997.695312 	-67941.843750 	73914.015625 	214188.031250 	56303.136719 	58503.050781 	-88432.031250 	-23841.714844 	17367.689453 	-18416.861328 	-37069.011719 	-53588.203125 	202521.343750 	-57729.964844 	-166705.781250 	-138818.687500 	-169708.937500 	-56020.183594 	-41961.718750 	21321.054688 	-148218.625000 	118251.898438 	-161931.234375 	219719.031250 	-30970.191406 	227400.109375 	32367.716797 	-177111.718750 	-17513.119141 	47339.917969 	321571.750000 	-238701.796875 	27808.199219 	38728.441406 	91420.281250 	81406.468750 	-106679.867188 	-91757.992188 	-54126.535156 	179655.203125 	-112242.359375 	-105931.804688 	156910.078125 	-127151.710938 	14322.153320 	-74128.070312 	-185940.890625 	129163.625000 	169765.156250 	130278.148438 	-32925.144531 	-55465.773438 	113241.500000 	-141732.828125 	-91684.906250 	27669.863281 	-229772.921875 	235575.812500 	-106024.820312 	-34656.789062 	-169870.015625 	-44704.863281 	-16013.171875 	28810.550781 	-57488.363281 	-39586.261719 	-36426.761719 	-52790.113281 	157416.562500 	-38356.476562 	-153558.406250 	73701.984375 	-117270.695312 	-251664.593750 	188898.312500 	55649.875000 	57138.085938 	55168.125000 	131440.546875 	-65432.324219 	120312.867188 	-43375.730469 	85061.070312 	-103477.554688 	149495.421875 	-68287.570312 	-38275.519531 	53306.566406 	51397.992188 	164338.437500 	127695.875000 	-228609.812500 	224685.328125 	128928.750000 	132502.843750 	13250.744141 	79941.476562 	246285.468750 	-57550.003906 	77468.687500 	-34607.503906 	-13370.915039 	81231.867188 	100990.906250 	-115729.890625 	100752.289062 	60490.273438 	-64886.351562 	121368.890625 	-84172.539062 	51422.070312 	-43401.957031 	61819.125000 	60061.667969 	-133722.265625 	31023.517578 	11449.068359 	200707.203125 	-30774.365234 	-22805.751953 	-85719.453125 	-25701.634766 	33478.843750 	-61962.222656 	-60561.375000 	-221781.359375 	10026.356445 	-73913.867188 	-19613.146484 	-22466.207031 	-56947.167969 	-17630.910156 	142554.765625 	29988.976562 	-40546.128906 	37309.296875 	-178133.203125 	38902.167969 	-134650.171875 	-75004.429688 	98355.812500 	29894.691406 	-33833.890625 	-16431.863281 	7775.316406 	50541.781250 	122670.656250 	35424.468750 	-17822.275391 	171546.875000 	-12698.204102 	-171742.578125 	94305.328125 	107229.679688 	-283876.687500 	-56205.851562 	-148468.687500 	36552.562500 	-299425.125000 	248907.937500 	-33273.261719 	-5701.819824 	-186153.484375 	39813.031250 	-48193.468750 	74013.492188 	25511.337891 	129813.703125 	-37728.546875 	151547.437500 	-2206.555664 	210733.203125 	-116014.882812 	-164179.875000 	-169281.781250 	-2599.748535 	-72217.929688 	-30167.767578 	211225.671875 	-22656.416016 	37392.566406 	-24493.794922 	131347.328125 	112284.851562 	-38975.894531 	45909.187500 	-103159.125000 	-333949.718750 	262374.500000 	49612.960938 	207376.453125 	264105.250000 	-32642.234375 	63497.960938 	-3683.640381 	-102888.328125 	12760.183594 	202597.234375 	189357.015625 	216771.953125 	28545.404297 	94572.125000 	-26320.712891 	101975.343750 	133291.765625 	-80850.312500 	-177480.750000 	-180526.546875 	-3543.543701 	-39650.437500 	-58957.875000 	-118001.960938 	-34610.667969 	-57664.644531 	147290.531250 	-58325.636719 	17666.453125 	-116800.640625 	-80416.585938 	-4385.086914 	5577.353516 	-126957.226562 	55105.199219 	88636.328125 	49734.832031 	-97685.820312 	-102440.234375 	-79872.953125 	-8151.119141 	239436.968750 	168558.609375 	161407.250000 	-144374.734375 	62220.539062 	27895.171875 	72401.015625 	-4635.662109 	-34259.234375 	-121585.296875 	-61152.421875 	-122687.554688 	-31338.359375 	215077.750000 	93577.195312 	111.945961 	-93766.820312 	119715.492188 	138165.734375 	-25461.552734 	48316.863281 	34369.585938 	118861.976562 	-64799.269531 	-12298.398438 	184982.187500 	168094.125000 	-22650.546875 	-240233.359375 	3654.951660 	-166939.984375 	-123122.273438 	206100.000000 	91491.226562 	-273822.062500 	-27892.810547 	289321.562500 	-153804.343750 	-56578.511719 	-155298.156250 	39825.773438 	45301.597656 	35656.296875 	91314.500000 	119054.804688 	35962.246094 	132391.171875 	197278.984375 	-26346.007812 	80363.578125 	-93017.375000 	6016.838867 	-127499.773438 	-166594.125000 	-3320.062744 	-178684.078125 	66600.664062 	1558.715698 	59554.437500 	-15523.160156 	124409.578125 	59541.171875 	142917.375000 	7255.422363 	145846.515625 	151635.125000 	100258.421875 	-229509.265625 	33477.589844 	123405.804688 	-25326.609375 	92624.562500 	-171655.250000 	100452.351562 	-31533.412109 	-91974.023438 	-52731.375000 	62849.070312 	-19776.142578 	254220.109375 	-129775.312500 	39978.609375 	-52648.160156 	-3617.613525 	324469.531250 	14039.141602 	-40655.769531 	40413.789062 	133093.671875 	-25937.837891 	-123266.109375 	29485.191406 	-259319.468750 	-121167.187500 	-31004.294922 	7060.329590 	101414.421875 	92377.804688 	-120529.984375 	-127223.789062 	-24412.906250 	51387.750000 	293547.000000 	2784.575928 	224654.718750 	-92461.226562 	11418.673828 	430917.281250 	212813.921875 	-13420.215820 	55218.273438 	125078.414062 	50985.406250 	118655.656250 	-50956.203125 	-27568.537109 	117609.820312 	230510.734375 	-13262.104492 	-168162.390625 	-60619.035156 	-118392.039062 	43781.730469 	75974.679688 	9563.058594 	-30421.652344 	-163799.281250 	-39210.691406 	-61017.238281 	170323.359375 	7316.494141 	-58276.550781 	-65140.222656 	-11336.224609 	25854.621094 	158215.500000 	16609.169922 	61830.691406 	-37160.519531 	15426.598633 	98827.898438 	52258.187500 	-56312.515625 	-118874.031250 	145343.062500 	191969.703125 	195342.937500 	88708.468750 	6381.710449 	84749.023438 	121598.242188 	180352.500000 	54406.300781 	9832.056641 	-126322.351562 	98393.039062 	89694.046875 	-59692.625000 	-93830.953125 	-37273.082031 	35965.019531 	1773.627930 	-30408.652344 	-140996.406250 	-86738.875000 	298432.968750 	99752.414062 	21926.050781 	-55222.554688 	-51073.585938 	95313.515625 	14202.604492 	8784.080078 	124131.968750 	-47168.625000 	-101094.351562 	151724.250000 	-356811.468750 	-121236.218750 	-70204.609375 	168543.875000 	-54333.445312 	-37840.242188 	92165.992188 	120271.812500 	148000.312500 	-5282.619141 	-208787.718750 	112934.507812 	5956.808594 	-54108.730469 	-159794.828125 	-2252.304443 	-131474.890625 	84303.390625 	76916.492188 	21264.125000 	-5328.313965 	12351.473633 	25835.806641 	-43607.597656 	21568.750000 	126674.429688 	204218.000000 	-90796.945312 	3627.938965 	-31794.408203 	-67596.742188 	-33857.382812 	-140367.937500 	-117316.742188 	263170.750000 	355.777313 	-37866.320312 	19349.591797 	-253319.562500 	9364.664062 	-28906.988281 	195671.781250 	-30506.160156 	8743.087891 	68996.367188 	-270083.593750 	20878.800781 	165046.281250 	-32585.443359 	94668.867188 	243606.812500 	92491.171875 	145551.453125 	-107286.593750 	59755.914062 	-80872.828125 	-42563.812500 	18180.697266 	102628.343750 	66383.531250 	41197.277344 	121121.953125 	-201420.328125 	112934.835938 	-93047.851562 	144305.156250 	64676.636719 	-73324.101562 	84035.929688 	56958.875000 	9070.042969 	98516.679688 	16814.630859 	249013.828125 	145813.859375 	117470.843750 	32532.904297 	-13627.294922 	95897.257812 	226919.390625 	-202343.500000 	-2359.292480 	159903.453125 	-138665.890625 	-132342.843750 	-29169.417969 	-159511.328125 	-189793.656250 	34655.800781 	27330.251953 	228665.500000 	64841.707031 	-98439.625000 	95856.765625 	-55174.218750 	-142171.984375 	97926.210938 	-195244.687500 	-53393.460938 	121619.570312 	-63499.660156 	10675.489258 	-237303.171875 	3630.451416 	108868.015625 	212361.484375 	121838.640625 	86093.687500 	-147404.078125 	-215514.218750 	34283.222656 	9653.783203 	-77983.242188 	-79021.812500 	-85206.648438 	-146310.546875 	-18823.689453 	-280295.750000 	-18670.601562 	-109612.570312 	-27300.486328 	-180983.328125 	-136033.000000 	-47907.328125 	242503.890625 	-123318.703125 	-181644.015625 	203112.453125 	35280.699219 	100965.953125 	110011.359375 	149349.546875 	-173560.781250 	-23766.031250 	50031.812500 	-116866.585938 	-270472.656250 	-27402.261719 	-190579.531250 	-73121.164062 	-176736.953125 	-144247.703125 	47693.859375 	-321846.125000 	-13567.014648 	1029.118042 	-138677.234375 	11028.457031 	-140708.718750 	-48845.832031 	250660.468750 	111944.679688 	-51690.031250 	160678.796875 	5537.777344 	-81330.031250 	54010.363281 	4135.438477 	-122845.507812 	8558.499023 	-156448.656250 	15566.237305 	-246667.640625 	184131.359375 	-69519.632812 	-37542.507812 	54352.785156 	9108.802734 	-68759.796875 	-168072.640625 	-768.717712 	35679.976562 	150482.265625 	128707.523438 	-22649.082031 	240712.203125 	81601.015625 	96777.687500 	106533.273438 	-129167.468750 	113459.585938 	7295.430176 	179318.250000 	125650.023438 	-139987.218750 	-34105.937500 	-181410.578125 	-159325.500000 	206100.484375 	-8305.916016 	-161209.781250 	274481.156250 	168371.125000 	81296.179688 	-877.608215 	-38327.636719 	-205885.250000 	106971.835938 	-39640.414062 	-92773.726562 	-11112.248047 	34261.945312 	-15098.875977 	-50069.203125 	119941.851562 	-180338.421875 	-153378.484375 	-53129.839844 	233041.546875 	-18297.767578 	334354.125000 	96392.992188 	138502.156250 	4991.750977 	-18884.476562 	147949.953125 	-29592.607422 	-96944.531250 	218787.375000 	-115867.570312 	76455.367188 	53998.136719 	-86999.671875 	-84619.875000 	-66843.328125 	204031.625000 	7436.126953 	-34459.414062 	-36811.402344 	46287.800781 	34304.011719 	118301.640625 	-88434.226562 	-44351.527344 	41308.367188 	-40354.847656 	185557.171875 	134572.062500 	142804.890625 	-41021.375000 	-180046.656250 	84352.085938 	37565.460938 	118310.765625 	48721.425781 	-159657.578125 	97119.539062 	-47990.265625 	103486.648438 	108277.906250 	41356.679688 	138948.281250 	56000.234375 	56491.214844 	-237700.937500 	63346.093750 	-228659.453125 	32378.378906 	106998.632812 	-26361.148438 	-81189.945312 	-48273.562500 	-40804.222656 	-77710.601562 	23918.572266 	120245.976562 	-150339.796875 	-69420.796875 	-35620.292969 	136622.828125 	27277.244141 	-108821.132812 	97859.773438 	270697.875000 	8466.961914 	216006.625000 	-40812.371094 	175526.875000 	-72193.835938 	22955.832031 	-208967.421875 	-222074.781250 	72208.062500 	-98311.890625 	124868.992188 	-185266.609375 	-52775.210938 	-145529.078125 	-65772.617188 	204919.656250 	-68246.929688 	-160254.921875 	-37966.613281 	768.712341 	17220.496094 	199042.906250 	233955.187500 	121034.984375 	79170.914062 	-103911.867188 	100378.273438 	28138.171875 	212803.953125 	-79611.109375 	54512.054688 	-180585.968750 	-26897.664062 	-32610.238281 	-48500.019531 	127299.921875 	74974.320312 	-23998.621094 	-13384.292969 	36372.503906 	13599.659180 	120396.773438 	-20596.712891 	-123617.507812 	66962.257812 	-22608.714844 	59852.847656 	203264.484375 	-542.835327 	91449.984375 	-190909.968750 	-86101.914062 	97618.796875 	-39216.125000 	74089.484375 	65635.796875 	-207422.718750 	-297189.968750 	93285.546875 	-137262.531250 	-111308.914062 	122962.140625 	-78457.929688 	38504.031250 	45222.546875 	103337.843750 	-58935.277344 	84904.523438 	72015.218750 	-12144.406250 	2597.117676 	-206146.843750 	13766.487305 	-161827.484375 	94688.375000 	-63451.335938 	-11607.728516 	88450.851562 	33109.894531 	88071.273438 	44105.332031 	212318.218750 	98643.312500 	201090.578125 	18324.089844 	162436.625000 	-106313.515625 	-84941.554688 	144623.640625 	-82159.718750 	95665.726562 	215822.703125 	-9575.058594 	6791.637695 	10455.209961 	193427.828125 	36846.906250 	21738.994141 	-272416.843750 	-140464.609375 	-38688.542969 	50084.714844 	-45578.175781 	-81611.781250 	-77440.656250 	46862.257812 	34667.582031 	-76465.742188 	-133431.437500 	-46283.402344 	-191898.765625 	69002.531250 	160209.406250 	210846.250000 	107800.453125 	-176318.671875 	45080.394531 	-215318.500000 	-137024.828125 	36774.492188 	-67857.328125 	211074.140625 	83951.414062 	-71559.460938 	68318.093750 	-81162.156250 	-146380.906250 	-190264.937500 	87078.164062 	-5483.352051 	-50528.363281 	-207063.515625 	23105.634766 	-90470.640625 	-106888.179688 	19278.140625 	68914.484375 	-142196.031250 	132614.437500 	115836.476562 	176817.812500 	-43342.421875 	-158841.546875 	40834.761719 	133573.953125 	31746.708984 	25079.162109 	30486.810547 	10474.543945 	-50022.355469 	47406.343750 	140215.203125 	147202.515625 	-197534.671875 	84012.890625 	-11026.067383 	-40836.890625 	79487.039062 	64353.703125 	-192940.375000 	152102.671875 	124234.554688 	29138.652344 	117500.390625 	-13675.766602 	-135259.656250 	-11969.173828 	43555.464844 	-78399.515625 	57803.609375 	132592.015625 	68040.273438 	33291.707031 	172980.921875 	-170892.125000 	20500.466797 	-19858.402344 	-81937.601562 	-275299.500000 	-104386.062500 	45619.558594 	-25574.611328 	-59606.949219 	16004.586914 	124219.898438 	-166261.187500 	-253370.171875 	-3375.544678 	61485.464844 	-52606.382812 	-53837.925781 	101335.484375 	131811.921875 	46839.804688 	92644.960938 	34258.570312 	-3956.587402 	200389.437500 	358214.500000 	64653.734375 	-12899.273438 	-172869.828125 	5257.573730 	143591.062500 	64559.937500 	234896.156250 	-77310.382812 	55448.304688 	160550.437500 	101291.734375 	-75334.421875 	24004.937500 	-24931.511719 	26398.261719 	-78145.437500 	77857.734375 	-97107.921875 	-57978.230469 	150511.281250 	-56084.941406 	-13864.929688 	9569.788086 	38706.851562 	-112410.187500 	52337.546875 	68601.484375 	-51742.285156 	51424.410156 	10882.264648 	-152661.046875 	-206104.390625 	-9335.098633 	-84186.273438 	-190304.625000 	-108674.625000 	-62254.695312 	79156.382812 	18282.277344 	199789.640625 	28331.220703 	107300.476562 	-115816.937500 	288211.812500 	94166.453125 	-89679.640625 	-57702.027344 	-179923.656250 	70252.570312 	50424.644531 	-101737.078125 	90542.804688 	-77512.632812 	-56408.441406 	292127.406250 	34157.722656 	219770.031250 	241745.000000 	-98555.539062 	192984.437500 	-114651.156250 	-120386.156250 	186094.812500 	1004.868347 	44972.832031 	-92021.367188 	-79673.187500 	-152488.265625 	117815.195312 	-12101.358398 	1067.948975 	239401.828125 	-93401.101562 	-101831.453125 	-19247.425781 	32639.181641 	-55382.890625 	-119019.125000 	-34578.265625 	-128952.914062 	-25020.904297 	33870.453125 	120271.515625 	-28559.724609 	-80293.882812 	135542.796875 	-64886.953125 	170496.796875 	102733.085938 	-337619.750000 	-50324.535156 	90804.390625 	-1506.410767 	-46379.011719 	15334.243164 	156234.296875 	49344.007812 	125886.554688 	-102596.390625 	79947.679688 	-29123.958984 	-3730.825195 	9033.879883 	4345.911133 	31296.503906 	38001.148438 	-90210.093750 	20951.111328 	111977.289062 	-172854.734375 	-113369.554688 	-194621.031250 	-25759.595703 	234739.578125 	-90150.367188 	45248.628906 	-28947.044922 	46888.484375 	68384.062500 	10503.116211 	106630.718750 	30208.859375 	48464.765625 	-11170.184570 	-221015.546875 	-1894.742188 	-322514.031250 	20958.275391 	17897.554688 	-117886.945312 	46013.718750 	167683.234375 	-84396.507812 	63318.980469 	56468.753906 	-113319.210938 	-29833.544922 	38029.074219 	15869.510742 	47137.660156 	-97157.093750 	-164255.421875 	195390.265625 	-96498.507812 	45453.296875 	44210.531250 	-206303.234375 	-103940.539062 	-94805.695312 	137896.171875 	-38541.238281 	11297.522461 	-217505.734375 	-45550.582031 	138524.000000 	163834.156250 	113605.648438 	-438.329773 	-6843.378906 	-179514.078125 	51675.601562 	7384.367676 	-53992.148438 	84247.039062 	-129665.140625 	-139597.656250 	-57312.527344 	-33097.281250 	-105398.671875 	-15033.557617 	106382.031250 	-2072.186035 	178515.921875 	74015.226562 	160522.671875 	58250.832031 	110730.468750 	-197361.281250 	86874.000000 	-39455.792969 	-73785.062500 	115856.320312 	136982.500000 	-67626.945312 	-196711.906250 	-60284.203125 	109875.218750 	-19716.341797 	73924.132812 	-35134.062500 	51627.566406 	32208.117188 	63691.742188 	-184428.515625 	150909.500000 	117346.859375 	-29142.636719 	147803.234375 	8914.843750 	-35320.613281 	38805.117188 	86411.484375 	34554.492188 	177062.031250 	42013.960938 	-127832.648438 	-65268.925781 	-120491.554688 	-8099.406250 	-58992.066406 	38822.226562 	155019.921875 	95169.523438 	-154553.453125 	77480.984375 	-320277.375000 	-13199.698242 	-57711.289062 	35779.257812 	143221.484375 	-73793.562500 	93728.375000 	-58698.332031 	-115829.468750 	41265.476562 	-119945.921875 	212456.796875 	43568.613281 	142602.031250 	-31545.980469 	186525.046875 	-58114.601562 	10089.519531 	68693.789062 	60069.816406 	165686.859375 	242186.000000 	-23134.638672 	-122185.328125 	197334.468750 	72639.093750 	227741.796875 	-174031.250000 	145569.140625 	73550.039062 	-131348.140625 	-57180.277344 	161510.062500 	18128.458984 	-108911.578125 	-24958.414062 	-38862.625000 	231593.765625 	105632.648438 	-33736.085938 	-138813.718750 	9317.336914 	-125861.359375 	-105686.531250 	12105.374023 	-133281.125000 	136442.031250 	-121847.710938 	-20798.632812 	-56414.671875 	63016.140625 	-289116.750000 	114149.984375 	-1126.202393 	-10754.580078 	-113856.671875 	43900.800781 	-64740.640625 	-203372.312500 	6245.759277 	29185.746094 	-103444.710938 	-87172.703125 	28976.871094 	79815.390625 	-52706.781250 	182362.843750 	97503.445312 	42082.167969 	44351.417969 	153008.859375 	42900.136719 	-176726.296875 	53565.253906 	-52950.003906 	22056.136719 	-192291.812500 	-36801.925781 	59498.339844 	107734.960938 	45399.523438 	25370.496094 	225967.265625 	199082.312500 	29654.308594 	-24165.160156 	62168.398438 	49846.816406 	-120.506599 	-30692.781250 	30422.544922 	-160063.281250 	-72156.828125 	-10921.297852 	134491.734375 	93246.617188 	14723.308594 	-189913.093750 	229956.234375 	-25692.535156 	-116499.023438 	-67494.750000 	148698.765625 	66758.507812 	-23310.619141 	-35387.406250 	3594.892822 	-68630.609375 	-89334.781250 	108371.718750 	16915.613281 	-168449.578125 	269414.375000 	42798.597656 	-22000.410156 	-4508.578125 	-129437.437500 	51058.343750 	-130548.531250 	127568.632812 	-135.948669 	15803.738281 	93709.328125 	-92018.687500 	-14486.137695 	-162799.562500 	211499.046875 	-106427.703125 	-43410.085938 	203088.250000 	-3676.041504 	35862.179688 	68420.171875 	-50499.375000 	-27292.255859 	4262.708984 	-221115.140625 	-28127.945312 	78035.132812 	283840.125000 	-53855.117188 	-182018.546875 	-29856.931641 	-52655.324219 	61341.476562 	-93252.140625 	-13184.802734 	-48951.632812 	111687.210938 	-10427.156250 	35864.957031 	220860.609375 	55865.035156 	156635.765625 	-12141.535156 	12675.541992 	50712.851562 	-178552.640625 	6608.724609 	-187108.000000 	98448.929688 	-60051.281250 	60173.160156 	92054.179688 	-70877.093750 	175458.406250 	103282.703125 	48516.734375 	87722.390625 	213688.562500 	-130357.898438 	-21492.541016 	85241.398438 	-127284.046875 	-234989.406250 	109783.562500 	-7701.616699 	-130389.875000 	-42029.402344 	-28255.228516 	91144.859375 	64458.761719 	141072.718750 	-194118.312500 	44506.875000 	44759.140625 	-80425.867188 	360.300751 	257298.796875 	-120411.375000 	29422.179688 	-92229.921875 	1888.666260 	39745.714844 	-24186.679688 	41490.437500 	112042.679688 	-9065.770508 	64372.890625 	170891.750000 	131979.562500 	42460.148438 	-171791.390625 	70217.226562 	37005.500000 	-23878.062500 	67649.007812 	20062.986328 	-92781.843750 	-109731.031250 	108968.281250 	-40956.023438 	-75290.109375 	116452.679688 	39853.054688 	-81357.585938 	126556.429688 	-7611.361328 	201539.531250 	-64952.906250 	23219.406250 	-25397.318359 	162194.734375 	-78650.703125 	146045.515625 	79463.648438 	-19820.767578 	57238.578125 	-91129.578125 	36754.148438 	159000.546875 	-46438.683594 	-16310.722656 	265334.843750 	-101208.070312 	-80496.695312 	174956.468750 	16216.984375 	-6906.434570 	-57363.011719 	75712.796875 	33812.906250 	-91989.882812 	-24281.837891 	-129413.617188 	184476.968750 	24300.916016 	-85802.093750 	-38193.757812 	-141436.890625 	27185.583984 	-7058.892090 	119728.203125 	91957.945312 	104917.906250 	-77548.664062 	-21909.806641 	-40958.898438 	178723.437500 	-75027.046875 	80358.773438 	-47378.054688 	167308.796875 	25748.365234 	54517.339844 	114575.171875 	-155625.593750 	-156662.812500 	214054.015625 	-81281.390625 	1337.300903 	18225.705078 	-102569.695312 	-34055.617188 	-130261.296875 	-278970.625000 	34317.390625 	30555.626953 	9245.878906 	-77640.320312 	-85843.234375 	49339.585938 	286113.656250 	-78676.132812 	-39802.460938 	44003.207031 	30665.349609 	11378.365234 	196752.859375 	-34504.050781 	90325.507812 	-198283.468750 	34952.023438 	55938.007812 	-83087.257812 	71061.140625 	-244527.000000 	-114455.593750 	45341.328125 	-161450.515625 	-29626.580078 	40587.917969 	-152227.203125 	-75380.085938 	-166688.953125 	-158510.859375 	-134863.046875 	217643.500000 	-30870.089844 	-274297.125000 	-103506.757812 	-31344.171875 	24115.427734 	-103694.328125 	-169886.453125 	17357.607422 	-10506.472656 	-143049.218750 	-80009.929688 	106709.320312 	206550.437500 	12831.954102 	-67542.992188 	25776.328125 	-46143.066406 	15105.439453 	41937.972656 	-141654.031250 	-209476.500000 	175590.640625 	136772.953125 	119137.968750 	-296783.593750 	38640.621094 	82968.210938 	34816.207031 	171705.093750 	62813.734375 	-26792.091797 	-20973.123047 	144301.109375 	36760.207031 	-132268.953125 	-42360.562500 	-59092.191406 	43160.824219 	17733.968750 	-58669.328125 	-113558.875000 	40204.859375 	191716.265625 	-14554.214844 	-73643.789062 	29982.849609 	44828.847656 	-175520.640625 	-37186.328125 	-9155.052734 	280866.312500 	68703.960938 	24324.246094 	102215.554688 	76484.132812 	87741.156250 	-17398.792969 	-62617.054688 	120139.648438 	32707.482422 	-57266.902344 	87198.437500 	-79537.625000 	-153645.609375 	-36524.734375 	125242.843750 	-49222.984375 	104019.632812 	-119647.617188 	43990.644531 	38942.386719 	73139.812500 	-64314.269531 	-195100.593750 	-85042.398438 	24425.896484 	-105795.625000 	224114.265625 	218989.078125 	1584.837402 	-50671.835938 	-112045.656250 	-127332.703125 	52104.507812 	232749.546875 	-54610.218750 	-68233.539062 	43492.046875 	53271.156250 	84396.734375 	-152769.093750 	84363.164062 	-74113.664062 	-44336.781250 	73216.625000 	-108032.312500 	6224.688965 	-23769.363281 	-81926.265625 	-79361.890625 	84258.632812 	-92229.421875 	69570.804688 	-155684.281250 	-73866.976562 	41570.960938 	-110491.031250 	-48322.421875 	227822.750000 	-264128.468750 	-35523.765625 	34987.707031 	37582.199219 	197596.281250 	-25620.076172 	63581.207031 	217218.750000 	172504.750000 	71425.835938 	74.048027 	38280.832031 	-21524.292969 	-15694.295898 	80957.500000 	29750.185547 	107719.546875 	-68157.632812 	-32643.623047 	-79454.875000 	132404.937500 	73267.125000 	-47308.554688 	239894.234375 	-133463.437500 	-24865.958984 	93428.554688 	-242895.390625 	-93525.695312 	-147952.718750 	-335067.031250 	139067.703125 	-157663.125000 	-1562.634644 	-149317.343750 	-65054.570312 	144163.812500 	-15373.297852 	-30188.527344 	107970.132812 	-72092.468750 	49647.363281 	-1517.525269 	-59109.988281 	161020.218750 	107632.671875 	-32679.988281 	-95988.007812 	79084.296875 	223994.546875 	98628.976562 	22468.527344 	24250.796875 	-68067.335938 	-139826.234375 	40362.972656 	-114308.882812 	-14180.174805 	119956.804688 	81556.148438 	53262.648438 	66279.757812 	72114.093750 	-141969.250000 	-82658.914062 	-96669.101562 	81983.289062 	158404.640625 	-160467.031250 	5427.704102 	-168816.343750 	109214.554688 	3929.522705 	-5030.529785 	10863.727539 	-64853.820312 	7836.912598 	-6695.232910 	-94294.656250 	238008.406250 	117271.351562 	98165.359375 	88293.773438 	86450.929688 	20288.515625 	-18752.236328 	-49496.996094 	34030.492188 	64091.957031 	-135194.250000 	73.911331 	-84817.023438 	-53273.796875 	35139.640625 	-35715.519531 	-53920.031250 	132194.906250 	-105358.914062 	168421.703125 	-79250.242188 	-50636.539062 	25429.712891 	127804.304688 	-20581.130859 	229837.125000 	-62285.816406 	36114.796875 	240886.296875 	-84388.734375 	22936.281250 	-155388.234375 	-132216.734375 	-168317.781250 	108201.609375 	-275197.187500 	-12859.618164 	243707.953125 	124905.781250 	102085.710938 	6323.994141 	-29213.896484 	-68473.265625 	65492.542969 	177395.828125 	92128.726562 	251092.671875 	-208310.078125 	-7411.344238 	-52145.070312 	198458.796875 	117958.773438 	83611.773438 	-41223.757812 	-136293.468750 	150642.390625 	182128.812500 	134962.109375 	73138.257812 	49656.933594 	-63962.148438 	122302.367188 	-19239.042969 	-76892.906250 	133485.531250 	-96844.382812 	76234.437500 	-176408.031250 	82644.835938 	-112691.406250 	92976.765625 	-68721.796875 	-23144.371094 	10101.928711 	158379.734375 	-88168.828125 	54939.546875 	23203.275391 	-35830.023438 	3859.013916 	-29762.380859 	-190870.109375 	-217096.406250 	52302.917969 	144635.218750 	-12717.075195 	146297.125000 	29090.767578 	-76580.585938 	55079.699219 	117149.359375 	166913.687500 	-200538.625000 	121852.843750 	81160.054688 	3152.132568 	56310.078125 	-30279.732422 	20374.511719 	204.169525 	29546.775391 	-77333.953125 	-36373.769531 	-220458.687500 	-21377.533203 	17572.925781 	-146352.265625 	187459.875000 	94315.921875 	-217812.609375 	-26083.740234 	-61448.882812 	98996.312500 	112292.625000 	88161.601562 	74461.859375 	-267432.343750 	76720.554688 	130108.734375 	81233.812500 	-95700.648438 	-102484.765625 	67357.625000 	-2761.091064 	-274582.187500 	89106.640625 	14700.375977 	-75693.359375 	15078.897461 	-244068.687500 	-100970.070312 	-65705.820312 	-179724.140625 	-78548.125000 	207954.437500 	-131704.796875 	-121208.195312 	-68963.070312 	-47562.351562 	7011.563477 	-113217.640625 	106066.664062 	72349.789062 	10262.828125 	172222.046875 	94294.296875 	-65776.273438 	-96564.078125 	128582.968750 	-95998.992188 	-51928.253906 	-163499.671875 	155459.703125 	-41499.058594 	115194.703125 	-131689.812500 	32719.681641 	-180643.890625 	62964.746094 	-37840.019531 	52582.902344 	-116645.218750 	11691.034180 	100383.898438 	30542.234375 	133812.078125 	45614.996094 	-16069.165039 	-79186.054688 	-30216.585938 	-117367.953125 	-16169.535156 	-300231.218750 	-164998.218750 	-78053.601562 	31019.460938 	8801.887695 	110803.609375 	-2301.354248 	-46908.628906 	24431.373047 	-76803.375000 	-143200.687500 	181597.609375 	82577.812500 	127675.250000 	117823.632812 	140913.437500 	184418.828125 	-111362.601562 	25403.224609 	62448.453125 	65703.929688 	155139.484375 	125437.281250 	-110355.359375 	-119737.539062 	129470.960938 	-61711.035156 	102196.203125 	-63575.230469 	4969.484863 	-41657.609375 	-127753.382812 	116602.500000 	58157.765625 	-20552.347656 	53431.078125 	131508.093750 	-33120.230469 	-44847.074219 	209874.234375 	278602.718750 	150987.437500 	-54875.183594 	128013.992188 	107346.210938 	-162900.125000 	-214002.671875 	-31384.033203 	86327.210938 	-40127.562500 	-111243.835938 	88506.234375 	188558.468750 	98635.031250 	240352.625000 	98469.687500 	34654.933594 	109012.335938 	87308.640625 	106979.625000 	-51600.253906 	82938.992188 	25321.857422 	-153479.031250 	40884.886719 	-21268.021484 	111974.796875 	-173106.078125 	44908.769531 	11180.152344 	259041.312500 	47349.578125 	296339.125000 	21483.746094 	27262.039062 	71797.312500 	-34354.074219 	-68264.296875 	97148.914062 	-88078.226562 	-12668.885742 	-39995.957031 	-13245.555664 	38761.656250 	-48144.292969 	-171999.093750 	5412.994141 	-65713.539062 	29275.601562 	-39008.531250 	-25620.132812 	79143.882812 	-116009.960938 	-46712.757812 	-19803.781250 	-175442.046875 	-83933.656250 	185899.031250 	174055.703125 	-30840.666016 	-69394.414062 	-116747.460938 	95844.015625 	-177648.656250 	59212.562500 	19349.425781 	-122622.328125 	19169.054688 	-3959.379639 	-5239.303223 	-5717.961426 	-154472.421875 	236656.312500 	-44975.992188 	160050.468750 	182298.359375 	52445.578125 	120473.109375 	-49022.117188 	98499.578125 	-89219.585938 	-25203.189453 	-71363.351562 	212787.937500 	-218402.500000 	131034.796875 	61882.328125 	45372.261719 	-20852.787109 	102.750847 	-29780.568359 	129034.515625 	89166.976562 	106912.500000 	-28806.060547 	-16464.595703 	4643.587891 	-35655.105469 	66031.882812 	-107116.671875 	237388.421875 	-72104.898438 	93734.656250 	121194.195312 	-10066.405273 	-11168.105469 	139257.046875 	140083.468750 	45193.714844 	-122108.187500 	-174992.078125 	-156899.796875 	-115235.601562 	-158198.359375 	95230.539062 	130808.609375 	-83888.757812 	-53487.082031 	174095.812500 	40362.953125 	-79791.351562 	92856.179688 	3965.893555 	114883.171875 	-170.684479 	1781.820312 	141542.703125 	-125250.531250 	-96949.304688 	-118519.375000 	102316.343750 	45037.746094 	5851.825195 	-99453.093750 	-66650.867188 	4378.784180 	127505.695312 	174354.265625 	-101825.023438 	-27773.412109 	-54391.554688 	-106031.500000 	-27037.664062 	99409.406250 	32754.892578 	-22117.015625 	192718.109375 	130894.539062 	-87690.093750 	190440.359375 	31850.728516 	-345.725433 	-132083.859375 	-5048.981934 	-21401.072266 	46856.167969 	22683.968750 	49961.894531 	303836.000000 	207457.328125 	20251.281250 	-58787.207031 	166679.359375 	74533.875000 	-52384.750000 	23459.279297 	28163.820312 	47577.664062 	27043.347656 	23221.878906 	-61737.933594 	-79935.937500 	216431.968750 	-3746.350098 	117604.234375 	-46914.140625 	182953.859375 	-17853.863281 	-23509.449219 	-47811.351562 	150535.703125 	-109574.273438 	-25868.996094 	32332.750000 	6577.151367 	-49560.890625 	37889.292969 	86083.890625 	52320.058594 	-83995.273438 	-143603.125000 	-36620.777344 	-82457.492188 	90874.484375 	-118452.234375 	-9061.469727 	10930.917969 	14743.586914 	-3043.797119 	-104640.945312 	-91068.546875 	-45007.324219 	-53969.976562 	21233.224609 	-31769.925781 	198734.281250 	-24187.439453 	-100392.335938 	51680.164062 	23667.666016 	136967.921875 	5814.934570 	33129.085938 	229008.218750 	-9075.726562 	-41259.250000 	29164.503906 	-38056.937500 	-8267.764648 	148329.093750 	-75839.367188 	-16610.193359 	-19574.039062 	-48071.789062 	37681.058594 	-4592.749023 	50610.222656 	89543.390625 	-102919.500000 	-119584.453125 	306536.031250 	21696.000000 	-33655.203125 	-113733.500000 	-164585.343750 	-12697.716797 	-9712.138672 	89750.773438 	9750.204102 	-66899.656250 	-158730.765625 	85315.851562 	72014.593750 	-124444.179688 	-189317.406250 	-138717.265625 	4811.505371 	38875.890625 	-86192.101562 	-57170.390625 	-89282.226562 	-29841.619141 	-134107.140625 	-318560.562500 	128677.046875 	27430.371094 	110615.273438 	170411.062500 	142443.437500 	-28470.462891 	100385.929688 	-737.178101 	55523.285156 	66226.726562 	154153.171875 	2973.463867 	-138952.250000 	-4427.326660 	-65554.210938 	284418.562500 	-141629.234375 	-13021.327148 	154483.578125 	-283304.375000 	57707.140625 	52850.488281 	49844.917969 	-25729.519531 	-60929.222656 	86920.429688 	-77137.906250 	59627.347656 	-6447.432129 	151898.046875 	-207019.671875 	-91804.656250 	-129799.164062 	124049.531250 	-116022.898438 	120119.687500 	140025.406250 	56192.671875 	-72212.148438 	52910.187500 	-89397.210938 	-97166.265625 	-47298.500000 	-141927.031250 	-182242.937500 	-57372.460938 	52546.000000 	-31550.912109 	-23823.746094 	149027.968750 	-119928.125000 	-6633.261230 	-126065.101562 	-369845.468750 	-27184.988281 	-4910.831543 	28897.652344 	110558.781250 	171069.265625 	13756.023438 	-23384.255859 	-139601.375000 	-128680.734375 	190331.406250 	41806.007812 	-67878.398438 	-85262.101562 	143366.765625 	53036.710938 	-121899.195312 	27980.683594 	-92368.992188 	-146612.515625 	-160766.953125 	54981.558594 	-104737.218750 	43928.488281 	-45334.136719 	17060.994141 	-93858.039062 	-43630.187500 	-29803.113281 	36014.281250 	-4180.038086 	140988.000000 	-67951.382812 	-97012.718750 	-68595.437500 	116489.570312 	117863.281250 	-38254.410156 	172635.718750 	-226756.062500 	73746.554688 	44544.929688 	-104195.820312 	70674.671875 	-94526.875000 	31967.546875 	-109843.843750 	114932.265625 	109920.671875 	-46488.886719 	71933.703125 	107319.546875 	98037.187500 	-44166.582031 	18130.171875 	50909.195312 	150914.468750 	165460.296875 	-235367.421875 	8955.473633 	-133054.093750 	-30940.869141 	-59537.746094 	99586.968750 	156850.984375 	173376.390625 	-78018.914062 	128348.640625 	58310.441406 	-186882.875000 	3387.150391 	90582.492188 	-38627.371094 	-66305.898438 	-197579.859375 	47696.613281 	-107203.773438 	252513.156250 	-230176.734375 	-23008.324219 	-9449.650391 	117785.960938 	240662.656250 	128165.304688 	-15736.592773 	62033.660156 	-42673.753906 	101796.101562 	202312.140625 	5530.041504 	-52604.574219 	88795.937500 	-220055.750000 	-47085.457031 	115820.359375 	134638.187500 	20614.224609 	-87818.460938 	206673.828125 	106712.929688 	-24979.345703 	22209.347656 	-83747.117188 	-100137.679688 	201531.093750 	-44719.148438 	55116.738281 	-241176.406250 	114839.617188 	-27977.113281 	-59266.425781 	133876.984375 	-5417.934082 	209092.687500 	-213340.718750 	118325.984375 	-92715.867188 	-102149.828125 	14894.154297 	172097.421875 	8455.759766 	-343.941772 	-4558.437500 	-29180.693359 	-97387.875000 	111268.375000 	-53594.933594 	-19848.355469 	215461.359375 	-232351.328125 	3670.171631 	-27610.140625 	27509.367188 	-155608.593750 	-58121.269531 	243694.078125 	-63584.128906 	123109.585938 	-62208.792969 	128628.039062 	78974.390625 	3640.525635 	-196601.890625 	-70849.570312 	-89043.046875 	-7654.138672 	32822.449219 	185564.062500 	59903.558594 	158671.453125 	-43679.343750 	13181.749023 	259611.406250 	104796.515625 	-25343.503906 	-152795.625000 	-166068.093750 	-35572.445312 	29412.806641 	126549.421875 	3269.108154 	-68062.882812 	176067.765625 	118672.507812 	585.642212 	52052.441406 	-92612.445312 	82163.531250 	192376.015625 	-155276.500000 	-55588.773438 	180662.203125 	98501.828125 	15252.818359 	-72330.429688 	17679.574219 	19829.406250 	-33102.503906 	-161476.656250 	36241.679688 	16116.767578 	53988.203125 	-43051.878906 	25199.767578 	67794.257812 	-87032.078125 	118034.859375 	-51993.164062 	-58606.839844 	-117343.945312 	24568.613281 	165878.531250 	47711.148438 	119441.937500 	-111247.515625 	119814.890625 	-36525.410156 	-71885.429688 	125777.570312 	114237.367188 	-141329.812500 	-153834.046875 	-111216.398438 	95287.546875 	156774.406250 	222744.656250 	57352.687500 	-51113.644531 	43979.890625 	-12462.923828 	195612.609375 	-7736.926270 	87089.718750 	123617.226562 	127408.742188 	-46604.761719 	-6545.513184 	70567.140625 	-251689.796875 	-142554.718750 	-69898.226562 	-153940.890625 	76876.921875 	-7756.948242 	155239.609375 	26795.675781 	-38112.753906 	-16534.271484 	77195.765625 	-25451.001953 	-150144.187500 	-130886.781250 	-5799.812500 	214912.921875 	-306404.437500 	280313.125000 	-141559.750000 	30591.835938 	-48051.027344 	-40737.398438 	51716.191406 	94392.085938 	61975.367188 	-30073.054688 	12301.970703 	1401.854492 	20473.412109 	-23615.570312 	-29165.722656 	99500.484375 	-9238.946289 	326311.125000 	-96003.820312 	-25529.623047 	7488.260254 	-40937.750000 	-28959.857422 	-93772.109375 	-166116.968750 	152544.750000 	122924.804688 	126484.687500 	55061.652344 	14114.538086 	130401.429688 	-122867.273438 	96896.781250 	-6073.814453 	38153.550781 	160344.390625 	-118573.375000 	1256.809082 	45014.210938 	3542.592529 	-28869.312500 	-64947.527344 	-18629.908203 	-50080.042969 	-25548.058594 	-78985.210938 	26898.955078 	18768.097656 	14692.411133 	-49532.390625 	70804.250000 	-58960.035156 	90241.148438 	69732.507812 	233832.593750 	16925.492188 	74241.046875 	-178794.421875 	-53597.851562 	-26443.306641 	289063.062500 	109589.585938 	16917.396484 	-61566.269531 	-2664.483887 	63684.984375 	-102483.960938 	-102161.953125 	-156762.546875 	-186703.515625 	-77504.085938 	-110663.734375 	123739.804688 	-82026.945312 	60480.226562 	-60738.644531 	-26030.751953 	145380.453125 	-53073.136719 	-143742.968750 	-162029.968750 	-59794.941406 	-114511.953125 	-50273.355469 	-96935.914062 	29741.230469 	-28387.716797 	222935.921875 	-32534.791016 	76903.273438 	-13531.387695 	-316979.937500 	-8727.323242 	-155315.125000 	-78994.757812 	72505.500000 	-112093.531250 	-44105.410156 	-96885.242188 	77181.328125 	6586.308594 	322211.218750 	58916.933594 	-100968.070312 	-326392.031250 	96372.132812 	-217355.687500 	-122944.257812 	-114158.968750 	140201.515625 	139589.281250 	-131949.718750 	264456.812500 	44685.433594 	-15635.117188 	-114135.960938 	70751.351562 	-32284.726562 	-48658.953125 	135021.625000 	-166071.203125 	-79271.328125 	-20154.664062 	-46241.863281 	-60321.363281 	-53721.074219 	-180796.515625 	-92500.835938 	-12502.914062 	40617.910156 	43855.093750 	56727.398438 	103342.179688 	180920.218750 	138342.406250 	48170.644531 	48369.363281 	103100.992188 	64912.164062 	115247.585938 	183778.000000 	28918.353516 	42393.691406 	82091.843750 	-253224.078125 	26532.964844 	125704.296875 	-261185.562500 	3015.501465 	-15422.666016 	294548.437500 	98039.171875 	19105.656250 	-53920.765625 	-105998.578125 	107133.468750 	63699.925781 	71616.296875 	-39094.539062 	-124797.335938 	66409.828125 	-61954.261719 	-115662.335938 	-119757.625000 	-98664.546875 	-171920.125000 	-4858.985352 	113542.601562 	42240.617188 	55443.128906 	-47139.484375 	20698.318359 	-142649.953125 	-243321.562500 	-123012.632812 	-28738.396484 	-106786.382812 	245711.468750 	-91281.273438 	84363.617188 	-36831.218750 	-211271.234375 	-89330.523438 	-30958.033203 	22038.312500 	72976.757812 	-16257.791016 	-104279.562500 	84539.984375 	-142773.328125 	-172406.171875 	58010.339844 	-227907.375000 	186025.484375 	80429.929688 	251864.078125 	-145783.937500 	-104159.484375 	-82266.218750 	-24484.669922 	173711.812500 	-137808.656250 	37633.179688 	-113524.765625 	-7989.458496 	-261195.703125 	54859.292969 	-58984.753906 	166795.390625 	-148938.375000 	33099.011719 	-69178.265625 	104740.132812 	41443.414062 	179346.000000 	-12688.802734 	-39205.277344 	-88004.554688 	115953.484375 	-122899.437500 	-144761.687500 	-145546.906250 	-7841.616699 	104836.234375 	-121991.828125 	85638.882812 	46304.648438 	-58910.476562 	95853.625000 	8711.489258 	7090.656250 	-56944.363281 	39518.933594 	-119305.484375 	126541.570312 	150893.468750 	-37271.488281 	139071.546875 	23867.916016 	-95045.414062 	78605.328125 	2904.047852 	-93270.085938 	-56454.687500 	148436.484375 	-47687.871094 	-78070.164062 	-110573.203125 	-125895.078125 	153739.234375 	165692.656250 	171446.906250 	149661.281250 	190851.281250 	102006.250000 	44841.417969 	111411.726562 	-44131.191406 	-16014.910156 	-93952.828125 	52771.386719 	-17995.966797 	27123.544922 	-46270.601562 	121230.171875 	47993.343750 	-90777.078125 	-78384.710938 	-15401.858398 	-7391.961426 	-32594.580078 	-252728.937500 	-172004.578125 	144988.937500 	53365.050781 	99086.218750 	-319656.125000 	51656.546875 	-3297.145264 	114799.015625 	-17942.318359 	-79339.265625 	244135.875000 	304459.031250 	-29053.757812 	174258.984375 	-384277.156250 	-110034.375000 	-49915.375000 	115190.484375 	7094.763672 	-85527.843750 	77001.117188 	-139643.968750 	-202224.531250 	-54181.964844 	-45400.722656 	-39640.367188 	-79414.242188 	268676.843750 	106726.468750 	-107112.656250 	-82651.335938 	-269467.718750 	-178358.937500 	-65027.316406 	84994.007812 	184097.828125 	48254.148438 	-146133.453125 	-217092.218750 	-173240.093750 	26198.130859 	-62454.640625 	-31775.572266 	-32191.107422 	-30448.771484 	-254940.203125 	110558.171875 	78363.414062 	93928.015625 	110819.375000 	188098.765625 	48182.414062 	16937.087891 	-24292.402344 	-235905.265625 	6588.095215 	22192.929688 	-101490.820312 	12744.701172 	92076.328125 	-66243.953125 	-118867.390625 	80485.109375 	4642.359863 	230203.468750 	81221.398438 	-46243.148438 	88201.523438 	-225.305664 	-30967.564453 	-128510.265625 	-31405.025391 	-184.569901 	-12019.734375 	-1567.010498 	-201056.828125 	16686.222656 	202579.375000 	154575.187500 	-23147.017578 	-101072.179688 	-153704.500000 	125664.132812 	-132590.234375 	88770.882812 	112260.875000 	221343.468750 	14043.820312 	-21566.091797 	-38876.382812 	96689.179688 	-118031.195312 	199805.203125 	71869.398438 	152550.546875 	68989.296875 	-54165.777344 	-154631.031250 	224257.875000 	-69476.906250 	88224.570312 	54060.664062 	194690.015625 	53563.953125 	-8388.262695 	87567.476562 	-58967.730469 	25112.175781 	-174083.671875 	-119733.648438 	55398.945312 	-119923.343750 	-129505.468750 	-77737.515625 	-39121.996094 	36424.839844 	-54786.234375 	11302.212891 	61794.957031 	-70984.539062 	-38938.308594 	-107342.679688 	11925.113281 	-15246.327148 	46096.050781 	136741.890625 	170415.718750 	-94995.570312 	254995.515625 	69462.312500 	49244.582031 	-25989.716797 	-182107.156250 	-30161.000000 	-115309.187500 	-18958.017578 	183893.406250 	129500.851562 	-87485.765625 	-114299.335938 	-10191.013672 	21519.626953 	93897.562500 	-11606.683594 	92545.398438 	59359.296875 	57329.921875 	-218157.031250 	-51934.121094 	49533.636719 	-16341.066406 	86520.250000 	188726.250000 	-95969.679688 	-204164.468750 	-37574.402344 	-177090.078125 	-158161.046875 	-126176.585938 	-35259.878906 	-2325.056641 	-91023.671875 	16700.552734 	2137.543701 	-115037.523438 	193567.796875 	71790.578125 	193558.281250 	19207.429688 	130868.734375 	-68905.898438 	58197.824219 	80085.023438 	-23828.437500 	73784.476562 	-103908.523438 	-190776.250000 	200512.093750 	-233626.562500 	177665.531250 	50558.449219 	-74389.320312 	91120.851562 	-170693.765625 	46463.570312 	-47283.281250 	-73342.195312 	-323791.718750 	-14573.205078 	-55332.464844 	-126684.953125 	-179661.046875 	33496.281250 	42830.683594 	5711.061035 	122272.359375 	-119163.796875 	-79649.031250 	122455.546875 	51410.992188 	36201.898438 	-96681.625000 	-68106.218750 	123831.242188 	-26429.150391 	115668.812500 	273121.062500 	-45377.664062 	-3978.333984 	23399.091797 	-91151.343750 	40918.476562 	117262.523438 	-118887.226562 	209707.390625 	-201513.593750 	25993.679688 	-5204.376465 	25880.435547 	10552.051758 	-128971.726562 	-74189.156250 	-149824.421875 	47041.250000 	103867.984375 	114568.601562 	-113765.914062 	84353.492188 	14997.879883 	-221582.218750 	40230.484375 	-63565.363281 	185371.937500 	-29125.501953 	90296.929688 	-174799.343750 	72149.476562 	30736.478516 	16654.376953 	46229.085938 	-27026.324219 	-28227.669922 	-159077.562500 	-233529.312500 	-208176.046875 	140830.406250 	65782.656250 	-167469.156250 	38634.074219 	121885.710938 	-118905.414062 	167340.625000 	51649.273438 	58211.738281 	-36229.699219 	2943.605957 	-109117.242188 	-90113.523438 	43956.710938 	18376.226562 	-80560.679688 	-17327.558594 	-73620.359375 	-108146.906250 	29257.851562 	-18238.322266 	-108630.164062 	-5739.594727 	-94625.421875 	28787.099609 	211868.953125 	-101925.781250 	124548.460938 	-7411.906738 	7656.754395 	11262.382812 	-53895.410156 	143001.859375 	54627.769531 	139447.171875 	-165326.546875 	-14075.111328 	23500.271484 	-122226.367188 	27922.353516 	-52092.632812 	-8142.261230 	-45625.367188 	-68753.945312 	129583.476562 	185375.234375 	181670.609375 	-59161.464844 	131272.453125 	133900.531250 	193519.437500 	-104851.945312 	318228.875000 	107740.984375 	-168632.250000 	48554.054688 	-233620.578125 	-67368.984375 	-21069.417969 	57478.300781 	125821.742188 	345626.875000 	-7093.050781 	172559.187500 	33156.753906 	-85012.273438 	-14464.769531 	-230724.468750 	-32275.466797 	33586.917969 	126571.578125 	603.303955 	8765.711914 	-158365.875000 	60714.390625 	121813.750000 	-318373.031250 	34624.777344 	112941.234375 	-73493.968750 	-44578.132812 	60496.250000 	-50272.332031 	-11054.359375 	-32722.025391 	-69728.632812 	-201.472336 	28977.029297 	19023.472656 	81196.296875 	130095.164062 	-99087.109375 	4318.105957 	110977.078125 	-44482.121094 	170789.250000 	-129258.773438 	-68026.796875 	11265.401367 	-69462.890625 	250355.281250 	-297618.750000 	-48710.605469 	-152496.078125 	-70877.750000 	-20448.484375 	-91892.710938 	-19077.482422 	-244742.703125 	-67659.843750 	231447.937500 	81869.460938 	129705.976562 	-13399.068359 	-131604.062500 	124128.710938 	-86549.093750 	54579.082031 	-8194.433594 	158301.312500 	-120211.718750 	-130264.695312 	-114231.695312 	77129.304688 	253504.484375 	-102295.218750 	-41950.652344 	-137457.703125 	-118200.273438 	-155987.000000 	4524.005371 	38237.730469 	-7806.497559 	17340.636719 	-164411.609375 	-52292.949219 	77892.578125 	79795.562500 	21969.814453 	-138287.859375 	-45988.226562 	96310.375000 	102371.078125 	-68532.976562 	107782.304688 	-29579.998047 	183387.312500 	-46290.625000 	-36137.691406 	37437.597656 	50834.722656 	55637.492188 	-66015.554688 	-114944.117188 	597.332275 	-33229.847656 	58924.183594 	-68272.140625 	-108832.132812 	-90699.171875 	4693.319824 	53321.535156 	19593.531250 	2653.236816 	11683.834961 	21545.070312 	-74543.265625 	-60401.070312 	-95600.625000 	-115139.265625 	19857.531250 	-120598.648438 	113527.046875 	199739.968750 	-245011.375000 	23470.587891 	19900.525391 	207482.921875 	-6568.112793 	97296.007812 	-270345.718750 	-223321.578125 	-160572.046875 	117375.515625 	7039.391602 	123275.078125 	370897.187500 	-61179.679688 	102218.093750 	-24869.720703 	38208.988281 	68536.632812 	41670.867188 	-127512.140625 	14086.508789 	145611.187500 	-128513.289062 	136078.578125 	-206931.203125 	-82794.304688 	-63556.843750 	-76964.117188 	-36483.812500 	103415.429688 	-113198.796875 	79262.039062 	30525.974609 	-170955.968750 	-74044.546875 	-41215.765625 	-15172.356445 	146010.515625 	34144.988281 	-109739.031250 	-211471.875000 	-29779.082031 	-161888.312500 	-92364.468750 	-93190.789062 	10227.387695 	-223976.453125 	-101262.578125 	-76023.703125 	-72880.679688 	-206028.031250 	-67832.359375 	42645.375000 	89752.992188 	97551.445312 	90105.703125 	24554.324219 	88412.187500 	40522.523438 	-81354.656250 	-85018.726562 	-60896.781250 	-171534.625000 	123337.250000 	-221431.906250 	121262.687500 	10450.862305 	-59568.507812 	-163972.515625 	56782.550781 	-40326.988281 	131458.031250 	17642.646484 	35430.210938 	-29241.001953 	-172255.578125 	71476.484375 	43767.250000 	211161.078125 	-55994.000000 	-15080.441406 	-9432.844727 	-30267.851562 	11708.977539 	190937.984375 	60214.796875 	-55055.003906 	-126143.125000 	31983.195312 	-104987.906250 	32028.363281 	-34378.332031 	8829.939453 	-45087.554688 	4855.946777 	43485.718750 	-90743.585938 	22774.908203 	89209.359375 	25376.156250 	14985.761719 	-43164.914062 	64179.136719 	-42965.746094 	-70612.507812 	-46155.054688 	24836.470703 	-195242.406250 	34727.617188 	-33975.144531 	-7212.441406 	2204.001465 	265848.281250 	-2308.338379 	139818.312500 	47284.707031 	39835.656250 	135087.359375 	64952.789062 	107376.304688 	-39328.835938 	2849.986328 	-145949.546875 	-139153.718750 	-6956.100098 	-8438.525391 	157728.671875 	-141689.843750 	-164987.265625 	142275.765625 	128114.945312 	47347.902344 	125961.062500 	110135.617188 	121004.343750 	156027.765625 	25581.767578 	131920.578125 	295624.218750 	2826.585693 	-16562.968750 	95753.804688 	57235.574219 	82596.179688 	143598.812500 	163211.265625 	-134381.671875 	-221489.125000 	-135762.406250 	-96502.148438 	-29378.171875 	343197.281250 	-15993.378906 	51229.210938 	62063.492188 	48523.097656 	-34710.277344 	-12921.753906 	-22082.921875 	-62464.789062 	7177.058105 	93691.023438 	-138142.921875 	-39519.750000 	-68173.695312 	117345.617188 	-232710.843750 	93453.078125 	10933.899414 	47405.109375 	17698.625000 	7079.828613 	-111822.796875 	-17749.593750 	-50628.636719 	73648.960938 	77635.312500 	93257.890625 	-12332.857422 	4402.254395 	131248.640625 	-187633.828125 	-528991.187500 	128700.796875 	252604.593750 	349690.156250 	-121675.937500 	-72643.507812 	135539.015625 	-73453.148438 	-34753.636719 	-55137.976562 	-42515.273438 	91625.164062 	-76800.335938 	-171180.000000 	-90064.218750 	-94288.460938 	23585.558594 	-280449.843750 	130727.710938 	94674.632812 	-106831.039062 	-42206.453125 	102948.406250 	126238.656250 	90263.820312 	-2485.196777 	-80670.828125 	164184.171875 	-83544.171875 	160407.140625 	-101445.710938 	-182352.437500 	58088.871094 	-141951.781250 	14609.856445 	24697.378906 	-64250.421875 	-53456.671875 	190994.468750 	102394.242188 	-151747.203125 	-158023.515625 	25693.781250 	82532.906250 	-107368.390625 	18093.593750 	69289.023438 	191780.546875 	-149872.328125 	-4739.874023 	-115069.500000 	-115447.734375 	-131246.890625 	-48961.089844 	47942.667969 	-76798.429688 	-93953.398438 	-148143.671875 	20723.748047 	120664.554688 	-158325.890625 	-156398.906250 	-25376.695312 	16803.003906 	-12837.616211 	16.145885 	103892.414062 	123253.109375 	98816.718750 	-156118.984375 	-80840.015625 	-4050.164551 	181974.671875 	-49167.183594 	-132171.562500 	-4872.070801 	51231.101562 	159479.531250 	-6184.937500 	85109.570312 	24301.083984 	96797.617188 	102446.054688 	-46015.953125 	-39859.824219 	181457.578125 	-133046.234375 	15557.141602 	-121569.750000 	84644.648438 	157474.812500 	62272.984375 	154699.093750 	-94371.281250 	-154030.281250 	171047.625000 	1597.338379 	35022.269531 	57797.902344 	14643.376953 	-37040.847656 	34385.671875 	-89635.453125 	-189149.421875 	113460.585938 	155745.265625 	174415.718750 	-97198.773438 	312000.500000 	-105165.468750 	189612.265625 	29106.802734 	3200.914062 	-103819.367188 	-28902.091797 	-15440.548828 	39657.140625 	-151899.687500 	-37665.250000 	-163003.828125 	-59995.617188 	49713.171875 	-12648.086914 	224678.234375 	-30638.876953 	50440.203125 	-155425.296875 	-310848.000000 	-47119.031250 	18778.214844 	-87092.953125 	-22580.044922 	-26724.191406 	43546.308594 	-160179.109375 	-59861.554688 	-65090.628906 	65699.937500 	-169907.500000 	21717.273438 	39304.753906 	122683.437500 	-66411.187500 	17855.953125 	5224.785645 	107717.148438 	150071.031250 	127545.390625 	-152781.296875 	199261.953125 	48913.046875 	57954.496094 	39455.453125 	-92707.812500 	69822.648438 	-62871.621094 	205476.390625 	-45104.933594 	58534.160156 	-27551.460938 	216763.171875 	25483.281250 	186959.093750 	-125404.648438 	-15501.816406 	197749.953125 	-136843.875000 	85705.820312 	-15913.435547 	-92011.562500 	104530.406250 	-13690.366211 	-16133.159180 	55621.457031 	160396.875000 	95995.375000 	541.292908 	30252.921875 	126520.515625 	-81235.789062 	-44243.093750 	80542.242188 	-17804.207031 	-9364.197266 	-258178.453125 	152511.734375 	-138554.812500 	86373.937500 	289597.218750 	-322079.406250 	-191680.906250 	1458.276733 	-127365.085938 	84099.734375 	45209.890625 	-57265.328125 	49151.136719 	24671.316406 	-4264.905273 	-5168.497070 	-123374.109375 	27832.396484 	-214708.890625 	-55933.226562 	-25246.968750 	-75686.835938 	16103.212891 	-151838.671875 	140369.843750 	193334.828125 	60726.164062 	-107574.367188 	-2104.449951 	-79368.890625 	52588.113281 	-183649.500000 	-9078.705078 	113751.390625 	10866.582031 	53468.238281 	181890.015625 	-200612.796875 	-6897.300293 	631.024414 	77701.554688 	33809.875000 	152034.328125 	134716.421875 	-30311.289062 	-68266.679688 	52027.648438 	51841.718750 	4817.184570 	130.946503 	69368.367188 	63925.082031 	176208.218750 	44997.773438 	-56100.851562 	-135358.625000 	-18279.537109 	-13705.196289 	533.233521 	125461.914062 	-76879.945312 	-76338.750000 	51642.480469 	84925.226562 	-212783.906250 	349637.125000 	44204.343750 	-55729.824219 	96563.937500 	-1083.274658 	50755.136719 	-153629.296875 	-31264.134766 	-54209.789062 	21128.845703 	-73643.171875 	250773.281250 	124510.695312 	5263.173828 	240835.593750 	-96055.617188 	275949.812500 	-211676.203125 	776294.750000 	1552105.875000 	-242911.375000 	-181175.843750 	124928.828125 	-54875.609375 	768.774719 	-103563.679688 	16286.282227 	23085.853516 	-182141.578125 	-199309.859375 	-92381.906250 	40672.429688 	40034.562500 	89942.773438 	-199491.718750 	27780.976562 	-65078.648438 	-76883.804688 	-232595.640625 	-261784.046875 	-17957.613281 	187160.140625 	-74420.445312 	-75819.500000 	-25283.562500 	137067.062500 	-85814.335938 	-16777.861328 	28486.140625 	-31473.638672 	-344405.968750 	34253.109375 	40071.589844 	-31098.292969 	-76268.421875 	177525.328125 	40062.261719 	-213066.296875 	-73014.867188 	-56692.156250 	237487.265625 	66912.804688 	108304.445312 	162773.765625 	101692.437500 	133013.500000 	142551.703125 	62349.691406 	32563.292969 	-14682.364258 	-28535.019531 	-40333.679688 	-87389.546875 	-22339.771484 	37862.632812 	-180746.984375 	186259.218750 	76779.460938 	-70351.523438 	112138.445312 	26196.925781 	-196970.718750 	-192647.125000 	100137.054688 	-123169.617188 	38621.085938 	203574.156250 	-2658.937988 	230490.703125 	-121253.000000 	-40268.480469 	-85627.671875 	122864.328125 	6015.246094 	-214639.546875 	-30561.806641 	-162470.531250 	-77106.101562 	-73400.031250 	-124089.617188 	76211.171875 	119066.367188 	216986.812500 	-41682.343750 	-87754.039062 	-50948.332031 	118767.281250 	-70827.757812 	-266998.750000 	110627.945312 	83867.867188 	-80382.234375 	72664.187500 	42478.683594 	-258588.296875 	87920.687500 	-44050.003906 	82019.617188 	-78778.242188 	90417.492188 	79409.750000 	92284.234375 	159199.140625 	97147.234375 	-15992.366211 	41616.605469 	-74515.117188 	26863.730469 	-24364.882812 	-78688.382812 	276301.093750 	-296908.093750 	-115731.085938 	72363.375000 	-24405.615234 	822686.062500 	253853.062500 	28832.478516 	64687.976562 	99923.296875 	-122957.429688 	-188013.953125 	-53760.492188 	68128.343750 	62848.578125 	-191041.046875 	-70404.382812 	187713.531250 	-112893.687500 	-28554.449219 	52758.476562 	-133809.375000 	13306.977539 	25061.345703 	119299.195312 	106926.554688 	173369.390625 	-184595.234375 	-17431.572266 	121400.718750 	69940.359375 	-98343.906250 	-54574.683594 	-155718.234375 	-16798.101562 	-160207.000000 	-106020.507812 	-114579.414062 	-58187.941406 	-97445.343750 	-63314.078125 	16460.115234 	86237.726562 	-20037.675781 	-14751.583984 	78885.546875 	112554.375000 	2998.879150 	-130790.851562 	-105531.343750 	180703.203125 	-148094.500000 	-128939.375000 	-265888.500000 	-296542.250000 	-170950.765625 	216188.500000 	83492.562500 	14991.049805 	-73951.960938 	91279.156250 	-2260.152344 	43464.824219 	160883.406250 	80463.523438 	-122539.992188 	-105295.125000 	-86072.421875 	46156.640625 	266009.531250 	-37984.425781 	96258.984375 	87050.500000 	216088.562500 	-57916.519531 	78227.101562 	227392.421875 	-205963.296875 	105072.125000 	-54746.226562 	-78481.593750 	59604.695312 	-72374.257812 	99673.632812 	41323.167969 	125158.789062 	134380.734375 	-19204.646484 	-41834.929688 	70338.171875 	-16340.583008 	-146659.343750 	-44138.695312 	-33337.718750 	34782.296875 	-69360.601562 	-50870.242188 	49059.101562 	175163.937500 	-156970.453125 	-90856.046875 	-12047.359375 	-19625.185547 	-275367.218750 	-30383.962891 	-31395.597656 	86228.664062 	133359.890625 	19317.351562 	119710.070312 	-170039.796875 	252712.984375 	201352.578125 	-49509.066406 	-200186.609375 	-30564.849609 	164059.328125 	185358.250000 	35553.152344 	-322504.718750 	-121880.328125 	62489.558594 	74042.984375 	20383.369141 	209306.109375 	-56967.769531 	-123149.109375 	-177761.906250 	35957.941406 	67345.156250 	82254.468750 	-91071.562500 	90349.343750 	-118032.132812 	-47906.667969 	-56835.171875 	108596.789062 	24554.007812 	-92360.554688 	-109469.890625 	114905.875000 	247448.343750 	-142169.093750 	2549.676270 	-159980.781250 	216302.390625 	-142001.843750 	136057.953125 	51886.277344 	-55927.914062 	-158307.968750 	-147232.515625 	97103.601562 	-64246.445312 	31441.056641 	-88802.054688 	95326.867188 	-148656.250000 	56885.863281 	-62389.945312 	161621.187500 	-145984.875000 	-73017.257812 	-68079.687500 	22400.210938 	35979.742188 	28353.455078 	-116421.335938 	114673.117188 	-102158.851562 	-36892.605469 	-362151.437500 	125555.289062 	151129.140625 	-45098.019531 	78869.984375 	24618.966797 	-129482.523438 	127469.195312 	129301.468750 	-40517.519531 	-86440.054688 	-5519.209961 	-266481.656250 	-103631.453125 	-141739.609375 	51388.531250 	-154565.453125 	-99993.460938 	66166.492188 	16100.063477 	91537.546875 	170453.953125 	-252751.218750 	-260346.406250 	-13121.772461 	-45513.898438 	-51303.941406 	-217175.375000 	-64834.511719 	28039.017578 	-54444.550781 	-181778.484375 	-102774.960938 	-23669.666016 	-65919.851562 	126455.148438 	162149.718750 	90419.757812 	-27217.984375 	162104.781250 	76075.226562 	-177018.406250 	-248947.281250 	136768.843750 	-33733.082031 	80537.156250 	99484.085938 	6664.235840 	67294.898438 	182728.640625 	-100304.250000 	116543.460938 	122563.476562 	31797.621094 	251530.312500 	47456.863281 	-15394.239258 	-81197.539062 	-26451.822266 	-132059.671875 	325832.500000 	73810.835938 	66245.992188 	-5474.251953 	-79379.125000 	74059.281250 	81310.210938 	-255944.500000 	9455.106445 	-59156.218750 	-105757.867188 	11010.187500 	-201937.500000 	194016.734375 	68014.851562 	-139935.671875 	94866.914062 	18681.443359 	-222780.156250 	123774.695312 	165204.265625 	-123938.484375 	-65737.812500 	68314.953125 	-93588.906250 	82649.328125 	5021.295410 	-74255.281250 	47846.425781 	-101469.750000 	159961.890625 	-181875.687500 	44649.574219 	97157.328125 	-82364.187500 	-159088.312500 	159129.406250 	94367.070312 	173680.000000 	54849.097656 	126699.960938 	180447.187500 	-138948.781250 	-94172.539062 	-19068.054688 	-56428.820312 	-22916.675781 	20992.787109 	-44187.972656 	-56412.195312 	161242.234375 	138996.437500 	-127575.093750 	40040.617188 	46776.273438 	55139.968750 	-59396.019531 	920.897888 	-59062.257812 	-284973.437500 	266708.156250 	22890.250000 	-101820.757812 	-248911.296875 	29566.294922 	-157684.468750 	156236.109375 	-122582.718750 	-128728.734375 	47594.507812 	-111398.921875 	77350.945312 	69961.375000 	-115522.070312 	-75830.125000 	-82816.179688 	67083.070312 	185143.531250 	94042.375000 	-44029.656250 	70328.343750 	143848.734375 	-33747.785156 	46432.066406 	-217428.046875 	-11628.052734 	266301.500000 	64267.792969 	188395.156250 	9155.951172 	115953.750000 	149632.109375 	-114726.109375 	-283098.343750 	37174.398438 	-88733.554688 	-99114.250000 	110336.046875 	-76580.281250 	-34444.121094 	-17091.517578 	-233226.546875 	-248419.781250 	192072.953125 	302367.250000 	-131000.476562 	15272.619141 	63983.296875 	196446.125000 	91615.734375 	-75147.148438 	17848.798828 	-50049.261719 	99112.625000 	-230135.546875 	189701.906250 	-20709.087891 	-84195.851562 	43341.707031 	-179859.203125 	206464.437500 	117132.703125 	-118965.945312 	-15561.082031 	-5943.392090 	-13314.655273 	-76680.062500 	90343.687500 	-4045.524902 	29782.898438 	-96098.226562 	-55074.507812 	983.007629 	-107619.921875 	44248.121094 	40033.511719 	82607.859375 	-4235.949219 	-11657.886719 	-30355.597656 	-36091.324219 	93248.281250 	39892.558594 	-24651.560547 	-5709.529785 	-73391.906250 	232874.046875 	-51188.402344 	-93059.421875 	38502.449219 	-149476.421875 	75118.687500 	-15635.353516 	24498.613281 	141565.984375 	55614.976562 	-98766.398438 	213953.500000 	115948.554688 	-87743.015625 	221324.015625 	-82812.531250 	54847.707031 	-115105.078125 	326510.312500 	17516.148438 	-29381.863281 	-5419.712891 	8091.519043 	-87937.851562 	-131197.156250 	160044.796875 	72329.531250 	76711.414062 	-37908.753906 	-153039.703125 	200692.937500 	-75666.976562 	-48470.132812 	100135.148438 	-30559.097656 	-57319.894531 	183544.546875 	-29676.304688 	-145469.453125 	153946.828125 	41093.164062 	48431.957031 	23827.181641 	153029.453125 	-112378.570312 	156950.312500 	1054.275024 	-48910.421875 	-133948.375000 	-31970.933594 	85922.664062 	124453.703125 	130513.093750 	89233.804688 	-29285.025391 	-29471.632812 	39519.179688 	-15661.486328 	159294.234375 	141497.968750 	34607.929688 	-56918.593750 	97870.171875 	-157106.812500 	-159055.421875 	39841.804688 	140490.578125 	-86488.593750 	-118782.859375 	153839.125000 	170004.593750 	49911.074219 	-211872.812500 	-174318.984375 	14527.983398 	115225.210938 	228399.453125 	19224.394531 	49843.039062 	143783.906250 	-23974.345703 	58994.183594 	-160958.671875 	-19096.650391 	23588.429688 	59039.835938 	-23529.666016 	9707.967773 	39373.199219 	117849.351562 	-248767.984375 	-122107.585938 	31728.494141 	-358975.656250 	-140217.515625 	60694.046875 	107675.750000 	-31886.005859 	173914.296875 	-30452.355469 	-129805.226562 	235543.078125 	44984.707031 	95335.195312 	-119345.070312 	239221.609375 	82638.171875 	-32175.244141 	45448.382812 	74805.250000 	58304.835938 	15614.977539 	-19763.660156 	192849.593750 	9592.148438 	143437.875000 	128589.125000 	-140359.156250 	-50829.933594 	-45505.117188 	115596.179688 	-79927.171875 	5926.831543 	-196557.062500 	262938.625000 	-105689.515625 	-172478.187500 	-38883.527344 	24498.593750 	18349.726562 	150718.093750 	-178819.156250 	81139.171875 	20136.404297 	120317.468750 	87610.296875 	3239.761230 	226040.890625 	103716.117188 	-17382.681641 	152686.515625 	-16484.642578 	11756.513672 	12141.639648 	-7095.017090 	-19045.015625 	-63755.464844 	101118.820312 	216711.328125 	60200.289062 	-85690.773438 	70371.843750 	-21183.841797 	11286.708008 	9151.264648 	-75733.593750 	321233.656250 	115037.968750 	131409.765625 	-45370.445312 	2474.070312 	-124529.593750 	106943.148438 	-46278.707031 	-98155.312500 	10208.454102 	9577.243164 	-54087.015625 	73971.812500 	-18897.720703 	18348.957031 	-184827.765625 	50004.984375 	-133274.468750 	-26419.996094 	-12072.466797 	81002.960938 	120525.921875 	-96462.414062 	-19201.066406 	25350.808594 	-128318.609375 	45769.851562 	-199212.328125 	-301541.406250 	-10184.498047 	-106148.359375 	-141644.640625 	-8237.064453 	-179689.875000 	-10648.259766 	64167.390625 	-189213.171875 	-1868.098633 	104106.843750 	33601.761719 	-6929.435059 	21643.710938 	99885.640625 	-18301.705078 	-89510.835938 	55450.601562 	51950.378906 	71035.648438 	-111830.843750 	77674.132812 	-13307.037109 	-71674.585938 	-44103.375000 	-85858.960938 	-94375.554688 	-109705.835938 	-279645.156250 	-158.160187 	175210.359375 	-75928.984375 	-114215.617188 	-39220.886719 	-63869.136719 	6234.691895 	118169.468750 	-85224.375000 	18365.990234 	-73635.062500 	-15003.075195 	38692.218750 	54593.988281 	81024.015625 	51435.812500 	137964.703125 	149441.281250 	46374.726562 	-8157.219727 	15492.686523 	38239.914062 	-30465.804688 	56593.574219 	36851.914062 	-134030.859375 	-6135.121094 	305981.531250 	-191489.546875 	-25106.884766 	-175262.468750 	235425.218750 	-76074.210938 	-42084.246094 	55351.289062 	-126552.109375 	22421.699219 	-204386.156250 	-86794.421875 	-12224.576172 	-48691.257812 	-69017.242188 	-238749.156250 	157557.234375 	121478.398438 	60345.828125 	-38618.632812 	246583.171875 	124591.726562 	40541.953125 	44109.835938 	-140381.859375 	225178.171875 	7905.312012 	133322.671875 	7470.680176 	230645.187500 	-177997.484375 	-176713.421875 	9114.752930 	156827.781250 	-5331.532715 	-23203.625000 	-47576.859375 	11637.392578 	-147534.796875 	-46134.437500 	160524.765625 	26509.791016 	271109.031250 	54538.507812 	-67222.390625 	35113.261719 	-89244.148438 	140671.750000 	158490.437500 	86577.281250 	150565.734375 	-36843.968750 	-213723.312500 	-50298.808594 	-47771.371094 	-66663.687500 	88705.507812 	174449.062500 	-93742.687500 	96353.617188 	218133.312500 	-74339.515625 	142.844315 	-100841.945312 	-28661.728516 	42062.437500 	-91909.656250 	107906.187500 	113534.250000 	170204.484375 	-35275.914062 	-40163.125000 	64266.269531 	-45456.902344 	91416.328125 	-116795.734375 	28521.738281 	53984.804688 	62069.773438 	41156.601562 	-86181.695312 	198567.609375 	-22143.267578 	38166.777344 	-42901.921875 	-38308.980469 	-6793.649902 	-49903.457031 	-212721.375000 	61230.140625 	12908.022461 	24900.158203 	209176.500000 	-2201.273682 	-249002.421875 	124480.945312 	-66367.242188 	32607.218750 	114245.726562 	-3828.395996 	-48902.589844 	-1671.995117 	163167.859375 	83114.164062 	-81881.281250 	61161.984375 	86444.765625 	-14446.246094 	-61353.039062 	5846.689941 	103732.304688 	-105042.804688 	-44474.199219 	-8188.739258 	84297.460938 	21318.826172 	77191.132812 	132124.562500 	1261.398315 	163587.171875 	80237.789062 	62195.320312 	225605.765625 	159530.953125 	279530.375000 	-54225.175781 	67292.703125 	2557.266846 	14079.459961 	-28256.544922 	159323.562500 	-204339.687500 	-29102.767578 	51918.781250 	11140.919922 	-226904.500000 	-114732.570312 	161615.484375 	-225964.609375 	-85179.789062 	218508.328125 	49719.648438 	-68897.726562 	-30490.519531 	-242122.109375 	-55641.484375 	-118940.273438 	155897.593750 	7181.537109 	-17533.015625 	46115.703125 	153430.968750 	-73581.023438 	-262973.093750 	13269.992188 	468.386505 	-23891.769531 	-63557.304688 	-58106.218750 	-146533.921875 	-28362.791016 	113511.007812 	321517.281250 	224064.015625 	18913.478516 	-114452.429688 	-26372.552734 	-44892.558594 	83929.476562 	-84746.101562 	21431.781250 	11962.929688 	-101023.992188 	18800.783203 	-173936.890625 	185630.515625 	-9282.713867 	-176337.453125 	-29787.687500 	-372.154755 	226973.390625 	61573.578125 	149032.812500 	77871.156250 	-29076.412109 	-326063.343750 	122240.343750 	-43070.332031 	180394.406250 	65788.328125 	144085.390625 	129416.476562 	56978.746094 	-65150.480469 	-142832.484375 	-278147.718750 	30513.867188 	37156.785156 	23927.863281 	-115526.062500 	-232935.968750 	115141.265625 	-148559.046875 	-261735.015625 	-107678.695312 	-116317.492188 	-259844.218750 	-79564.117188 	68967.820312 	80071.492188 	-35027.027344 	121609.429688 	18400.798828 	65478.074219 	71547.671875 	-42011.753906 	3842.385254 	-59651.867188 	-84318.046875 	67661.820312 	-10459.648438 	13215.848633 	-47486.597656 	94981.765625 	35878.023438 	-44478.394531 	18372.062500 	-21175.046875 	-7924.015137 	-181077.781250 	-157432.640625 	77942.484375 	-53297.898438 	-220636.640625 	-46675.859375 	66001.773438 	-246212.453125 	90158.273438 	74135.914062 	1931.928101 	10516.822266 	-117237.484375 	-163874.218750 	-79211.937500 	192266.906250 	-104658.937500 	52798.519531 	-85661.351562 	27329.429688 	51331.625000 	-78854.203125 	181487.171875 	142363.890625 	1835.984131 	64309.863281 	-15102.309570 	-83810.968750 	-23051.990234 	-27483.156250 	117175.476562 	93876.695312 	-75097.906250 	-127028.976562 	-126976.382812 	-141054.031250 	65263.437500 	152165.843750 	303030.750000 	-2886.966309 	-62180.511719 	-176196.046875 	49237.367188 	-131168.703125 	196507.484375 	9520.688477 	94903.242188 	-100817.882812 	71846.906250 	-74763.265625 	74900.000000 	-123474.617188 	-108800.296875 	-27483.708984 	-26456.314453 	15330.411133 	-48269.363281 	96944.156250 	-218229.437500 	-34762.089844 	15262.957031 	73483.109375 	96652.523438 	32644.699219 	117884.367188 	102906.273438 	16635.519531 	-40706.058594 	-18923.974609 	-123800.093750 	59066.773438 	71711.265625 	25873.472656 	74349.187500 	-90199.156250 	-99168.125000 	65742.625000 	100822.390625 	-44716.183594 	-229093.250000 	26434.335938 	186067.406250 	-38058.011719 	66923.507812 	-44555.320312 	-37165.984375 	49333.613281 	205902.562500 	99201.625000 	-59188.304688 	216359.781250 	26532.353516 	-51209.773438 	44812.921875 	28432.724609 	-252557.359375 	-56475.199219 	-63380.476562 	-122920.437500 	90256.203125 	180591.437500 	-21037.994141 	-17586.046875 	-28172.708984 	-9517.334961 	-27800.490234 	-92070.601562 	71518.554688 	-35936.062500 	293210.468750 	-90007.328125 	-111333.515625 	53168.976562 	60340.675781 	-28845.927734 	87176.757812 	18648.259766 	-97655.007812 	147056.015625 	-240252.750000 	-182859.953125 	-131237.859375 	-57549.714844 	-69714.328125 	17269.621094 	57874.773438 	-54458.601562 	-46848.960938 	98067.539062 	-9664.497070 	76120.546875 	90298.812500 	98555.437500 	71835.257812 	-94206.984375 	47643.183594 	-30087.925781 	66757.421875 	-3373.911133 	-162310.171875 	75255.195312 	135337.328125 	-122344.781250 	2781.595215 	-9650.829102 	44340.750000 	-87391.726562 	-75043.117188 	-55292.781250 	98695.968750 	-23475.210938 	949.638000 	53501.878906 	193594.625000 	-98377.625000 	12600.685547 	116554.867188 	37457.464844 	-6765.322266 	132223.265625 	55894.097656 	-149535.828125 	-66355.585938 	-87821.164062 	171071.015625 	-94699.671875 	74181.703125 	71615.000000 	16831.283203 	-8970.833008 	-121635.351562 	137689.796875 	123784.578125 	-39035.273438 	-125044.976562 	-98025.023438 	132714.781250 	24817.349609 	130821.765625 	18465.564453 	100580.867188 	92975.046875 	53947.492188 	-59710.496094 	-362926.156250 	-278165.937500 	-19404.093750 	162235.187500 	-45747.761719 	72138.953125 	95701.054688 	453.113922 	33183.957031 	-42232.359375 	32121.417969 	99650.414062 	-46251.953125 	131293.250000 	10217.086914 	140802.578125 	242654.578125 	-325366.781250 	-70647.117188 	109828.679688 	-45979.339844 	90992.796875 	101538.640625 	-123847.820312 	30156.896484 	124431.304688 	-70705.726562 	-161908.812500 	254113.781250 	-96319.960938 	75363.960938 	-74395.312500 	59015.886719 	87982.406250 	-141020.171875 	18740.613281 	6794.089844 	11178.566406 	54998.093750 	103924.890625 	180349.296875 	105733.875000 	24266.300781 	10383.643555 	-45977.078125 	-66465.390625 	-84014.226562 	20276.931641 	38065.152344 	-125537.570312 	101383.289062 	39829.585938 	204857.281250 	-60457.386719 	65572.328125 	11474.276367 	35364.156250 	-178390.375000 	-103401.406250 	238721.812500 	-157319.765625 	7356.689453 	-25140.044922 	73500.312500 	171606.468750 	154130.828125 	117802.320312 	56791.898438 	152681.046875 	-19710.091797 	-26399.341797 	-11078.456055 	-80393.171875 	152952.000000 	-2562.080811 	-141237.687500 	-194435.218750 	4058
[...]
 	201.750656 	-177353.593750 	102001.710938 	-104298.109375 	-137320.015625 	285855.625000 	49990.187500 	-125274.257812 	-219330.671875 	26564.152344 	-3458.353760 	74970.656250 	111064.546875 	-56088.386719 	-10874.461914 	102476.437500 	36595.937500 	-112188.468750 	-359038.250000 	63824.824219 	31771.984375 	103685.843750 	23084.427734 	18931.031250 	54867.753906 	116230.640625 	94405.609375 	-59618.058594 	125612.710938 	-18146.220703 	-78173.421875 	-15103.947266 	42030.109375 	92375.531250 	-22613.513672 	-140533.234375 	13492.584961 	18528.865234 	-8401.292969 	-36069.695312 	-123360.625000 	26595.744141 	58036.746094 	146155.281250 	-133520.859375 	61939.707031 	-76613.406250 	140617.578125 	146508.250000 	-146548.046875 	85246.421875 	-10146.965820 	-50503.531250 	-180537.000000 	-83327.078125 	204907.062500 	126740.250000 	235855.796875 	31210.845703 	99601.820312 	-130266.312500 	92874.914062 	15163.361328 	-97265.695312 	142501.015625 	101038.945312 	-76374.679688 	-144022.984375 	-74221.882812 	5265.260254 	80812.375000 	-126941.281250 	-41912.230469 	59245.796875 	-70997.718750 	96091.750000 	51507.054688 	28489.123047 	13263.211914 	-607.566711 	-203432.656250 	176494.031250 	-220617.171875 	-81353.968750 	-140825.203125 	241454.093750 	193716.234375 	1579.565430 	-37141.835938 	72062.359375 	-198938.125000 	-92642.460938 	-14949.338867 	-55470.042969 	-103708.273438 	100782.851562 	-95073.718750 	-14556.130859 	-206668.546875 	651.761475 	-27128.845703 	31070.669922 	104951.906250 	-63301.136719 	117043.320312 	136805.890625 	-3627.334717 	62073.449219 	66276.789062 	-80378.773438 	-102595.976562 	-61023.335938 	-63942.324219 	56650.054688 	20160.695312 	-201131.546875 	139530.390625 	3259.201660 	44527.769531 	70030.437500 	40188.328125 	-1498.220337 	30249.740234 	-81064.429688 	32614.791016 	-30962.302734 	30064.015625 	104752.718750 	56279.835938 	18805.886719 	-68946.312500 	-95992.367188 	-19452.375000 	48626.519531 	-228911.875000 	-226343.671875 	-126430.125000 	42992.421875 	4880.453125 	29649.246094 	165022.562500 	67004.257812 	-167141.015625 	179931.390625 	125350.093750 	98486.054688 	-136535.500000 	59884.707031 	-29620.623047 	166221.468750 	103653.015625 	88456.093750 	126590.273438 	-154137.531250 	102306.421875 	53490.234375 	109242.664062 	-99771.679688 	-22011.869141 	-61767.808594 	29829.017578 	203568.421875 	-51989.828125 	-229360.859375 	117992.039062 	-44478.886719 	54640.523438 	132903.734375 	86932.656250 	-161343.437500 	-33993.867188 	-78644.218750 	-98473.710938 	-167587.265625 	39491.281250 	89883.023438 	-45879.656250 	12223.148438 	197711.031250 	123818.382812 	-209608.968750 	11807.500977 	92299.570312 	152824.468750 	69186.031250 	209281.750000 	-153134.078125 	-140865.062500 	-12133.481445 	-121838.046875 	-38378.015625 	240757.718750 	105994.859375 	192705.421875 	45096.785156 	-110189.367188 	71045.812500 	-4573.093262 	204452.546875 	-173083.234375 	82701.937500 	52297.843750 	-44078.804688 	-10719.163086 	286418.687500 	-94415.039062 	20812.099609 	-49609.605469 	36290.628906 	108483.414062 	64917.531250 	43392.902344 	151082.750000 	-13167.288086 	80479.914062 	-100453.054688 	-142914.609375 	-164696.828125 	57887.648438 	2644.581787 	64999.855469 	-133626.578125 	-79262.679688 	-49630.988281 	197762.531250 	-299287.625000 	38922.800781 	-39857.953125 	15521.659180 	-144254.296875 	152269.703125 	37589.015625 	-36013.417969 	71658.773438 	-160018.406250 	2304.862549 	50573.070312 	51494.601562 	73157.414062 	51029.058594 	60771.382812 	-63435.191406 	-95297.484375 	-130468.296875 	-135828.015625 	84083.070312 	194518.078125 	129845.593750 	-113349.304688 	-52064.007812 	-7626.865723 	-17056.037109 	23172.587891 	-54025.800781 	-133896.203125 	196516.218750 	125663.054688 	-94878.390625 	45365.484375 	228294.906250 	10140.267578 	-4095.156250 	-43122.308594 	186328.609375 	-29591.857422 	-26639.472656 	9284.139648 	101625.117188 	-24986.082031 	106063.726562 	-98941.125000 	164377.796875 	-79827.718750 	-85821.031250 	-10121.530273 	339751.437500 	-74031.265625 	-16899.140625 	-52936.179688 	-4768.011719 	-22676.103516 	83140.414062 	-187958.156250 	-46385.863281 	-96270.062500 	102794.898438 	-91232.296875 	-169641.953125 	-98212.148438 	122028.687500 	94752.742188 	79445.476562 	149387.000000 	-80873.898438 	-120331.984375 	-17034.583984 	125091.015625 	55145.074219 	-160850.515625 	99827.601562 	-11168.668945 	-63454.070312 	-118081.625000 	179703.750000 	-77237.765625 	-75321.515625 	155554.390625 	136378.703125 	-39686.046875 	-91024.789062 	-72222.078125 	26706.835938 	48959.695312 	138015.468750 	-130673.617188 	107707.007812 	-40983.996094 	23720.964844 	-1336.504272 	-31653.072266 	-132550.671875 	70422.398438 	155692.656250 	-106271.570312 	-11451.797852 	-259915.343750 	105467.664062 	40151.765625 	32980.460938 	28659.552734 	-75833.562500 	190051.156250 	36833.867188 	-70984.632812 	-125350.945312 	-145953.062500 	-121715.750000 	-192597.234375 	-36209.714844 	-35348.250000 	7845.544434 	12567.029297 	76770.453125 	-260499.796875 	-126196.796875 	40180.546875 	-209569.859375 	-249513.750000 	82444.984375 	135869.500000 	-83818.343750 	138770.390625 	3114.256592 	-33073.855469 	-176124.578125 	-54539.308594 	117981.679688 	-27228.525391 	96306.820312 	-1972.387817 	-127529.710938 	121674.070312 	73543.812500 	-105578.523438 	29431.056641 	-507.157806 	-125520.515625 	-150105.828125 	138495.921875 	73107.109375 	-180793.171875 	140165.062500 	61831.003906 	46499.320312 	-207780.640625 	-53761.718750 	140378.687500 	7071.643555 	-188894.437500 	39899.332031 	-26462.675781 	-35788.707031 	-55538.535156 	198876.046875 	172911.234375 	-151777.203125 	37659.417969 	90679.484375 	-312024.437500 	73378.843750 	-144515.390625 	-168553.437500 	-41983.640625 	24716.820312 	-72182.570312 	-145331.562500 	189901.687500 	42877.675781 	-143445.031250 	21259.001953 	49919.246094 	203693.140625 	-7941.803711 	77686.515625 	-131119.234375 	-22801.787109 	35684.550781 	24107.923828 	-35093.683594 	-6418.101562 	201094.406250 	-6052.910645 	91682.742188 	16028.875977 	72401.546875 	-48193.562500 	-212485.015625 	-23903.382812 	5553.903809 	-157828.734375 	51565.367188 	-33667.246094 	176637.593750 	146756.296875 	55327.656250 	-197271.750000 	126344.156250 	-159849.750000 	14333.674805 	-7629.169434 	-27338.693359 	120229.203125 	-98794.296875 	-32673.146484 	56506.660156 	-102777.109375 	-110982.234375 	6437.337402 	223385.500000 	33440.863281 	-49091.332031 	-113247.859375 	111146.101562 	-30165.181641 	-141288.281250 	-73395.375000 	94324.312500 	183523.593750 	-188489.718750 	16196.408203 	-49191.136719 	38738.816406 	-176673.515625 	7303.750977 	54048.468750 	110777.117188 	-172422.625000 	228955.781250 	-106468.859375 	-20383.955078 	-76690.476562 	-305949.093750 	-148226.828125 	-95084.062500 	21423.128906 	234105.781250 	-117500.953125 	114191.296875 	-22731.398438 	24941.154297 	64276.800781 	-82479.656250 	-75190.445312 	10324.812500 	-101961.445312 	70825.781250 	-61640.671875 	-177973.968750 	-245184.593750 	154041.453125 	-7788.446289 	-34791.863281 	-14407.081055 	16956.769531 	35384.410156 	205903.218750 	-59511.328125 	27904.003906 	-134708.421875 	48230.960938 	-71554.664062 	4877.525879 	78203.523438 	197782.468750 	82016.500000 	8794.804688 	33225.902344 	23583.794922 	231825.046875 	-185078.531250 	-127913.148438 	-152674.718750 	-54190.183594 	-47008.792969 	-153492.875000 	52482.000000 	-504.163544 	-73104.687500 	106963.453125 	-54377.320312 	91840.054688 	-39356.464844 	87167.843750 	-44675.058594 	-32201.548828 	-80265.625000 	-28455.355469 	122909.210938 	104794.703125 	32359.628906 	111857.890625 	10417.005859 	-72259.195312 	-48088.351562 	84278.171875 	-61164.863281 	-174841.265625 	-153609.265625 	52257.777344 	-124950.953125 	-18436.138672 	2749.320068 	158424.437500 	72463.226562 	74803.757812 	35501.917969 	-117718.226562 	22742.695312 	7846.765625 	244687.578125 	-25536.025391 	5193.536621 	-16027.004883 	-169981.359375 	178928.359375 	259263.359375 	185781.734375 	-3054.172119 	17253.103516 	38706.222656 	119147.046875 	-103523.250000 	231823.390625 	147405.046875 	53028.808594 	-108404.101562 	117000.804688 	80625.812500 	-208819.328125 	213523.578125 	-249439.093750 	129057.921875 	76111.039062 	22792.253906 	188056.125000 	234955.468750 	-98718.968750 	235209.500000 	-83698.148438 	196922.015625 	-256215.750000 	-114415.921875 	58262.035156 	45236.218750 	-10258.331055 	96631.031250 	-258699.656250 	-55204.609375 	29552.255859 	208968.203125 	-49530.156250 	-6883.067871 	-132027.890625 	-254040.687500 	175846.031250 	-76215.421875 	137295.500000 	-88259.328125 	123583.359375 	84357.296875 	20470.582031 	8181.305664 	45569.433594 	25415.371094 	-193548.562500 	53611.941406 	-30837.205078 	-41358.792969 	-30364.169922 	-116646.851562 	-8766.743164 	-150585.140625 	133108.734375 	-137288.859375 	-56916.355469 	-26608.992188 	-14335.267578 	-65969.437500 	67025.218750 	191486.421875 	17559.839844 	53112.910156 	-141539.531250 	88719.390625 	34167.425781 	-126179.765625 	158353.343750 	110591.500000 	-74742.382812 	-110669.390625 	69615.476562 	-80379.593750 	-32459.564453 	-8760.484375 	-20904.138672 	105638.789062 	-17774.957031 	-3465.998047 	7217.478027 	-124432.234375 	-13118.521484 	-132780.156250 	173480.984375 	16697.011719 	-84554.390625 	-379701.781250 	-41452.339844 	11971.439453 	-63519.527344 	48606.257812 	114058.656250 	5354.839355 	-18081.285156 	-152164.187500 	178179.078125 	7551.165527 	1061.528198 	-270145.562500 	-79466.476562 	91402.835938 	-66712.664062 	-88310.000000 	8688.848633 	49783.328125 	44180.960938 	53411.535156 	-106283.617188 	63232.929688 	135090.593750 	-59414.347656 	158225.578125 	18234.474609 	220693.828125 	-10615.977539 	-18730.794922 	122163.117188 	-71990.289062 	30690.599609 	68099.054688 	93618.226562 	25107.517578 	-107900.023438 	-267498.593750 	131905.734375 	9298.697266 	-138814.843750 	14456.993164 	-292043.500000 	-75391.632812 	66679.765625 	151521.843750 	-54862.480469 	14885.720703 	71189.804688 	-129652.023438 	-19463.412109 	-147000.406250 	-90880.468750 	288600.843750 	-275229.781250 	49757.816406 	-18198.283203 	-39470.679688 	9104.788086 	-30488.677734 	20420.332031 	171415.343750 	172618.906250 	-158575.296875 	97865.562500 	170522.046875 	110524.125000 	36082.953125 	132877.265625 	-16917.287109 	-158409.062500 	122846.882812 	-120234.578125 	-69793.156250 	100726.382812 	108159.898438 	-97454.507812 	-253167.531250 	76544.914062 	-3255.328369 	-129741.921875 	-195055.640625 	-78275.210938 	85293.367188 	23444.349609 	48602.718750 	141893.031250 	-139037.468750 	66089.554688 	-265302.906250 	-131441.843750 	-124169.750000 	54851.875000 	10183.216797 	4491.762207 	-171724.500000 	246162.453125 	-132252.234375 	-133115.078125 	-155315.078125 	96748.476562 	-17397.976562 	138045.578125 	119765.406250 	178223.796875 	80164.937500 	-253058.234375 	-11009.537109 	114626.320312 	-138474.796875 	-132040.812500 	-136049.406250 	84254.570312 	-449.204712 	55904.816406 	45300.355469 	-5651.475098 	-120205.765625 	-29831.884766 	76107.679688 	62578.000000 	-65539.265625 	-201191.406250 	125778.328125 	-51054.867188 	-97050.257812 	-48352.964844 	-63147.187500 	-92138.617188 	-2341.355469 	80680.312500 	192633.625000 	97583.132812 	19116.488281 	-142653.156250 	-155555.421875 	121036.375000 	126819.664062 	112887.140625 	15328.187500 	-102803.804688 	100897.648438 	-117921.218750 	-255387.015625 	-47035.542969 	-240584.500000 	13338.611328 	-158436.125000 	153396.203125 	28044.037109 	29271.224609 	-114584.101562 	-168041.843750 	-19910.929688 	26188.195312 	16775.681641 	-56289.707031 	154899.609375 	-112704.898438 	164507.593750 	-115997.203125 	-25826.238281 	5279.576172 	-41437.785156 	54002.238281 	242132.343750 	-20036.626953 	-153527.093750 	44065.164062 	-95927.585938 	16620.451172 	-264269.125000 	95157.703125 	-201351.046875 	126909.132812 	-29226.091797 	22675.458984 	-46918.019531 	108691.929688 	45302.988281 	-100514.210938 	152746.218750 	-28057.875000 	-7923.507812 	-82578.937500 	84407.734375 	-198318.343750 	145991.484375 	-165843.515625 	22748.794922 	-171097.515625 	50805.203125 	-36583.964844 	126690.578125 	-14452.587891 	2710.391113 	103675.601562 	-63161.824219 	-147676.671875 	113951.375000 	45414.792969 	-43661.921875 	97355.218750 	-122004.773438 	-94511.312500 	-33662.808594 	-149258.875000 	107729.789062 	-53805.835938 	-156043.484375 	-94705.429688 	62375.519531 	-88508.445312 	100790.921875 	-6395.302734 	-22990.804688 	-55238.113281 	62663.566406 	-87042.273438 	-66031.695312 	100007.476562 	77194.421875 	-91330.101562 	-137468.359375 	1454.321289 	43408.105469 	77936.523438 	-77688.429688 	104545.265625 	85349.093750 	-91901.148438 	-79144.093750 	-262959.781250 	117801.890625 	-189658.453125 	142934.437500 	139741.953125 	-78350.343750 	48419.867188 	177714.375000 	84348.203125 	174316.265625 	221536.406250 	128725.437500 	32624.193359 	81135.187500 	-47961.925781 	-145526.140625 	-127345.921875 	49288.867188 	-255376.687500 	110924.156250 	-4590.686035 	-250169.687500 	-2336.636963 	79037.132812 	85718.148438 	122026.007812 	-17566.728516 	271966.343750 	-137881.953125 	122872.671875 	12581.065430 	-107197.867188 	-4531.242676 	157228.078125 	61740.929688 	63686.960938 	224779.390625 	253118.187500 	-272424.781250 	-162368.812500 	164276.593750 	-76318.375000 	-47420.785156 	72351.804688 	51865.171875 	-2357.097900 	24273.083984 	-156354.281250 	-37211.843750 	-55478.117188 	5565.496094 	129232.656250 	-16713.939453 	-73371.937500 	34676.601562 	143040.390625 	-27649.546875 	12921.670898 	132359.203125 	173215.921875 	-39528.550781 	-167369.921875 	82220.273438 	-93681.632812 	36891.109375 	60526.898438 	-201602.250000 	24471.091797 	8203.351562 	-107643.218750 	-34578.808594 	10402.026367 	80938.203125 	286208.812500 	-273965.500000 	-136717.296875 	29723.253906 	-17870.419922 	1069.398804 	107256.632812 	232477.703125 	145222.015625 	-348587.031250 	141098.015625 	-10198.726562 	-342710.437500 	-94089.406250 	286186.781250 	246485.890625 	27185.701172 	92757.484375 	-81242.445312 	-5046.882812 	25422.566406 	246862.843750 	81859.648438 	-132077.156250 	142155.031250 	11407.294922 	120188.562500 	103199.875000 	-60121.605469 	23528.919922 	98888.890625 	122891.273438 	-90000.843750 	-66455.179688 	192194.062500 	132705.968750 	-182624.593750 	-100514.171875 	133650.109375 	87464.546875 	54144.660156 	-141928.421875 	-158331.734375 	23874.164062 	-42694.281250 	998.752930 	-24506.015625 	24596.244141 	123243.140625 	108663.625000 	-186447.531250 	-170961.406250 	-150441.078125 	5738.240234 	73486.187500 	35265.085938 	-78734.656250 	21198.753906 	4625.332031 	9089.784180 	48104.019531 	51149.257812 	-236021.703125 	-68107.437500 	-26872.105469 	77533.601562 	-60700.171875 	67256.257812 	-83809.718750 	30798.607422 	68777.281250 	95248.679688 	-17418.998047 	-74972.460938 	31904.828125 	-50353.363281 	77237.843750 	-94705.109375 	-144589.937500 	-137408.343750 	68896.015625 	-111071.593750 	11228.496094 	-154443.750000 	-6944.097656 	146230.656250 	-76228.250000 	-141386.203125 	-75373.656250 	-31683.876953 	-26336.253906 	-91391.585938 	-133125.062500 	-30755.310547 	33764.652344 	317069.625000 	-55301.570312 	24366.150391 	8399.694336 	117142.664062 	-89307.648438 	-86692.656250 	-65954.140625 	-18640.949219 	227898.750000 	37498.382812 	73062.257812 	79142.804688 	-905.591064 	-4864.235352 	57823.753906 	108215.710938 	-52292.039062 	-179622.421875 	82465.203125 	106528.078125 	103358.445312 	-147816.921875 	47858.527344 	-139764.921875 	-148963.046875 	133473.078125 	-104730.695312 	-175087.000000 	-241.506638 	-180733.250000 	-199003.515625 	27336.029297 	-411337.312500 	-12684.538086 	-36582.500000 	-84588.054688 	27319.419922 	-71635.742188 	28911.566406 	-81607.023438 	4133.794434 	152287.984375 	-50746.734375 	123578.234375 	-103909.843750 	-94586.945312 	121818.546875 	55362.718750 	-12591.914062 	-74963.421875 	-131310.750000 	-8274.966797 	62593.109375 	-6910.137207 	-90988.937500 	-106019.984375 	88247.125000 	45438.367188 	24678.025391 	29276.251953 	90407.023438 	5593.806152 	120197.492188 	-207313.625000 	22716.660156 	-51208.113281 	-113528.531250 	-65398.683594 	26025.693359 	-9025.171875 	53502.832031 	55547.644531 	-124065.476562 	-125842.835938 	-16275.060547 	178140.171875 	73147.039062 	-220369.296875 	28285.185547 	45988.507812 	173010.796875 	141077.812500 	144.423386 	-157662.718750 	95431.976562 	83886.820312 	-35706.093750 	83880.304688 	-63653.468750 	-56545.691406 	203261.937500 	-45403.378906 	265283.406250 	-189529.109375 	-88135.210938 	2730.541504 	-162250.250000 	59195.253906 	76924.187500 	-174729.375000 	12863.813477 	-58984.789062 	12863.814453 	-174729.375000 	76924.187500 	59195.253906 	-162250.250000 	2730.541748 	-88135.210938 	-189529.109375 	265283.406250 	-45403.378906 	203261.937500 	-56545.691406 	-63653.468750 	83880.312500 	-35706.093750 	83886.820312 	95431.976562 	-157662.718750 	144.423080 	141077.812500 	173010.796875 	45988.507812 	28285.185547 	-220369.296875 	73147.039062 	178140.171875 	-16275.060547 	-125842.835938 	-124065.476562 	55547.648438 	53502.832031 	-9025.170898 	26025.693359 	-65398.683594 	-113528.531250 	-51208.113281 	22716.660156 	-207313.625000 	120197.492188 	5593.806641 	90407.023438 	29276.251953 	24678.025391 	45438.367188 	88247.125000 	-106019.984375 	-90988.937500 	-6910.137695 	62593.105469 	-8274.966797 	-131310.750000 	-74963.421875 	-12591.914062 	55362.718750 	121818.546875 	-94586.945312 	-103909.843750 	123578.242188 	-50746.734375 	152287.984375 	4133.794434 	-81607.023438 	28911.566406 	-71635.742188 	27319.419922 	-84588.054688 	-36582.500000 	-12684.537109 	-411337.312500 	27336.029297 	-199003.515625 	-180733.250000 	-241.506424 	-175087.000000 	-104730.695312 	133473.078125 	-148963.046875 	-139764.921875 	47858.531250 	-147816.921875 	103358.445312 	106528.078125 	82465.203125 	-179622.421875 	-52292.039062 	108215.710938 	57823.753906 	-4864.235352 	-905.590698 	79142.804688 	73062.257812 	37498.382812 	227898.750000 	-18640.949219 	-65954.140625 	-86692.656250 	-89307.648438 	117142.664062 	8399.694336 	24366.150391 	-55301.570312 	317069.625000 	33764.652344 	-30755.308594 	-133125.062500 	-91391.585938 	-26336.253906 	-31683.876953 	-75373.656250 	-141386.203125 	-76228.250000 	146230.656250 	-6944.097168 	-154443.750000 	11228.496094 	-111071.593750 	68896.015625 	-137408.343750 	-144589.937500 	-94705.117188 	77237.843750 	-50353.363281 	31904.828125 	-74972.460938 	-17418.998047 	95248.679688 	68777.289062 	30798.609375 	-83809.718750 	67256.257812 	-60700.171875 	77533.601562 	-26872.103516 	-68107.437500 	-236021.703125 	51149.257812 	48104.023438 	9089.790039 	4625.322754 	21198.751953 	-78734.656250 	35265.085938 	73486.187500 	5738.239258 	-150441.078125 	-170961.406250 	-186447.531250 	108663.625000 	123243.140625 	24596.244141 	-24506.015625 	998.752869 	-42694.281250 	23874.162109 	-158331.734375 	-141928.421875 	54144.660156 	87464.546875 	133650.109375 	-100514.171875 	-182624.593750 	132705.968750 	192194.062500 	-66455.179688 	-90000.843750 	122891.273438 	98888.890625 	23528.919922 	-60121.605469 	103199.875000 	120188.562500 	11407.294922 	142155.031250 	-132077.156250 	81859.648438 	246862.843750 	25422.566406 	-5046.883301 	-81242.445312 	92757.484375 	27185.699219 	246485.890625 	286186.781250 	-94089.406250 	-342710.437500 	-10198.727539 	141098.015625 	-348587.031250 	145222.015625 	232477.703125 	107256.632812 	1069.398438 	-17870.419922 	29723.253906 	-136717.296875 	-273965.500000 	286208.812500 	80938.203125 	10402.026367 	-34578.808594 	-107643.210938 	8203.351562 	24471.091797 	-201602.250000 	60526.898438 	36891.109375 	-93681.632812 	82220.273438 	-167369.921875 	-39528.550781 	173215.921875 	132359.203125 	12921.670898 	-2764