
---------- Begin Simulation Statistics ----------
simSeconds                                   0.012561                       # Number of seconds simulated (Second)
simTicks                                  12560973600                       # Number of ticks simulated (Tick)
finalTick                                 12560973600                       # Number of ticks from beginning of simulation (restored from checkpoints and never reset) (Tick)
simFreq                                  1000000000000                       # The number of ticks per simulated second ((Tick/Second))
hostSeconds                                    185.71                       # Real time elapsed on the host (Second)
hostTickRate                                 67638063                       # The number of ticks simulated per host second (ticks/s) ((Tick/Second))
hostMemory                                    8948604                       # Number of bytes of host memory used (Byte)
simInsts                                     35890384                       # Number of instructions simulated (Count)
simOps                                       67437427                       # Number of ops (including micro ops) simulated (Count)
hostInstRate                                   193262                       # Simulator instruction rate (inst/s) ((Count/Second))
hostOpRate                                     363135                       # Simulator op (including micro ops) rate (op/s) ((Count/Second))
system.clk_domain.clock                           408                       # Clock period in ticks (Tick)
system.clk_domain.voltage_domain.voltage            1                       # Voltage in Volts (Volt)
system.cpu.numCycles                         30786701                       # Number of cpu cycles simulated (Cycle)
system.cpu.cpi                               0.857798                       # CPI: cycles per instruction (core level) ((Cycle/Count))
system.cpu.ipc                               1.165776                       # IPC: instructions per cycle (core level) ((Count/Cycle))
system.cpu.numWorkItemsStarted                      0                       # Number of work items this cpu started (Count)
system.cpu.numWorkItemsCompleted                    0                       # Number of work items this cpu completed (Count)
system.cpu.instsAdded                        70446431                       # Number of instructions added to the IQ (excludes non-spec) (Count)
system.cpu.nonSpecInstsAdded                      110                       # Number of non-speculative instructions added to the IQ (Count)
system.cpu.instsIssued                       69572708                       # Number of instructions issued (Count)
system.cpu.squashedInstsIssued                    256                       # Number of squashed instructions issued (Count)
system.cpu.squashedInstsExamined              3009108                       # Number of squashed instructions iterated over during squash; mainly for profiling (Count)
system.cpu.squashedOperandsExamined           5495183                       # Number of squashed operands that are examined and possibly removed from graph (Count)
system.cpu.squashedNonSpecRemoved                 110                       # Number of squashed non-spec instructions that were removed (Count)
system.cpu.numIssuedDist::samples            30693019                       # Number of insts issued each cycle (Count)
system.cpu.numIssuedDist::mean               2.266727                       # Number of insts issued each cycle (Count)
system.cpu.numIssuedDist::stdev              2.028632                       # Number of insts issued each cycle (Count)
system.cpu.numIssuedDist::underflows                0      0.00%      0.00% # Number of insts issued each cycle (Count)
system.cpu.numIssuedDist::0                   8431463     27.47%     27.47% # Number of insts issued each cycle (Count)
system.cpu.numIssuedDist::1                   4833475     15.75%     43.22% # Number of insts issued each cycle (Count)
system.cpu.numIssuedDist::2                   4753735     15.49%     58.71% # Number of insts issued each cycle (Count)
system.cpu.numIssuedDist::3                   3940651     12.84%     71.55% # Number of insts issued each cycle (Count)
system.cpu.numIssuedDist::4                   3426645     11.16%     82.71% # Number of insts issued each cycle (Count)
system.cpu.numIssuedDist::5                   3118731     10.16%     92.87% # Number of insts issued each cycle (Count)
system.cpu.numIssuedDist::6                   1395792      4.55%     97.42% # Number of insts issued each cycle (Count)
system.cpu.numIssuedDist::7                    613663      2.00%     99.42% # Number of insts issued each cycle (Count)
system.cpu.numIssuedDist::8                    170628      0.56%     99.97% # Number of insts issued each cycle (Count)
system.cpu.numIssuedDist::9                      8202      0.03%    100.00% # Number of insts issued each cycle (Count)
system.cpu.numIssuedDist::10                       34      0.00%    100.00% # Number of insts issued each cycle (Count)
system.cpu.numIssuedDist::overflows                 0      0.00%    100.00% # Number of insts issued each cycle (Count)
system.cpu.numIssuedDist::min_value                 0                       # Number of insts issued each cycle (Count)
system.cpu.numIssuedDist::max_value                10                       # Number of insts issued each cycle (Count)
system.cpu.numIssuedDist::total              30693019                       # Number of insts issued each cycle (Count)
system.cpu.statFuBusy::No_OpClass                   0      0.00%      0.00% # attempts to use FU when none available (Count)
system.cpu.statFuBusy::IntAlu                  172397     83.90%     83.90% # attempts to use FU when none available (Count)
system.cpu.statFuBusy::IntMult                      0      0.00%     83.90% # attempts to use FU when none available (Count)
system.cpu.statFuBusy::IntDiv                       0      0.00%     83.90% # attempts to use FU when none available (Count)
system.cpu.statFuBusy::FloatAdd                     0      0.00%     83.90% # attempts to use FU when none available (Count)
system.cpu.statFuBusy::FloatCmp                     0      0.00%     83.90% # attempts to use FU when none available (Count)
system.cpu.statFuBusy::FloatCvt                     0      0.00%     83.90% # attempts to use FU when none available (Count)
system.cpu.statFuBusy::FloatMult                    0      0.00%     83.90% # attempts to use FU when none available (Count)
system.cpu.statFuBusy::FloatMultAcc                 0      0.00%     83.90% # attempts to use FU when none available (Count)
system.cpu.statFuBusy::FloatDiv                     0      0.00%     83.90% # attempts to use FU when none available (Count)
system.cpu.statFuBusy::FloatMisc                    0      0.00%     83.90% # attempts to use FU when none available (Count)
system.cpu.statFuBusy::FloatSqrt                    0      0.00%     83.90% # attempts to use FU when none available (Count)
system.cpu.statFuBusy::SimdAdd                      0      0.00%     83.90% # attempts to use FU when none available (Count)
system.cpu.statFuBusy::SimdAddAcc                   0      0.00%     83.90% # attempts to use FU when none available (Count)
system.cpu.statFuBusy::SimdAlu                  11050      5.38%     89.28% # attempts to use FU when none available (Count)
system.cpu.statFuBusy::SimdCmp                      0      0.00%     89.28% # attempts to use FU when none available (Count)
system.cpu.statFuBusy::SimdCvt                      0      0.00%     89.28% # attempts to use FU when none available (Count)
system.cpu.statFuBusy::SimdMisc                     1      0.00%     89.28% # attempts to use FU when none available (Count)
system.cpu.statFuBusy::SimdMult                     0      0.00%     89.28% # attempts to use FU when none available (Count)
system.cpu.statFuBusy::SimdMultAcc                  0      0.00%     89.28% # attempts to use FU when none available (Count)
system.cpu.statFuBusy::SimdMatMultAcc               0      0.00%     89.28% # attempts to use FU when none available (Count)
system.cpu.statFuBusy::SimdShift                    0      0.00%     89.28% # attempts to use FU when none available (Count)
system.cpu.statFuBusy::SimdShiftAcc                 0      0.00%     89.28% # attempts to use FU when none available (Count)
system.cpu.statFuBusy::SimdDiv                      0      0.00%     89.28% # attempts to use FU when none available (Count)
system.cpu.statFuBusy::SimdSqrt                     0      0.00%     89.28% # attempts to use FU when none available (Count)
system.cpu.statFuBusy::SimdFloatAdd              1516      0.74%     90.01% # attempts to use FU when none available (Count)
system.cpu.statFuBusy::SimdFloatAlu                 0      0.00%     90.01% # attempts to use FU when none available (Count)
system.cpu.statFuBusy::SimdFloatCmp                 0      0.00%     90.01% # attempts to use FU when none available (Count)
system.cpu.statFuBusy::SimdFloatCvt                 0      0.00%     90.01% # attempts to use FU when none available (Count)
system.cpu.statFuBusy::SimdFloatDiv                 0      0.00%     90.01% # attempts to use FU when none available (Count)
system.cpu.statFuBusy::SimdFloatMisc                0      0.00%     90.01% # attempts to use FU when none available (Count)
system.cpu.statFuBusy::SimdFloatMult                0      0.00%     90.01% # attempts to use FU when none available (Count)
system.cpu.statFuBusy::SimdFloatMultAcc             0      0.00%     90.01% # attempts to use FU when none available (Count)
system.cpu.statFuBusy::SimdFloatMatMultAcc            0      0.00%     90.01% # attempts to use FU when none available (Count)
system.cpu.statFuBusy::SimdFloatSqrt                0      0.00%     90.01% # attempts to use FU when none available (Count)
system.cpu.statFuBusy::SimdReduceAdd                0      0.00%     90.01% # attempts to use FU when none available (Count)
system.cpu.statFuBusy::SimdReduceAlu                0      0.00%     90.01% # attempts to use FU when none available (Count)
system.cpu.statFuBusy::SimdReduceCmp                0      0.00%     90.01% # attempts to use FU when none available (Count)
system.cpu.statFuBusy::SimdFloatReduceAdd            0      0.00%     90.01% # attempts to use FU when none available (Count)
system.cpu.statFuBusy::SimdFloatReduceCmp            0      0.00%     90.01% # attempts to use FU when none available (Count)
system.cpu.statFuBusy::SimdAes                      0      0.00%     90.01% # attempts to use FU when none available (Count)
system.cpu.statFuBusy::SimdAesMix                   0      0.00%     90.01% # attempts to use FU when none available (Count)
system.cpu.statFuBusy::SimdSha1Hash                 0      0.00%     90.01% # attempts to use FU when none available (Count)
system.cpu.statFuBusy::SimdSha1Hash2                0      0.00%     90.01% # attempts to use FU when none available (Count)
system.cpu.statFuBusy::SimdSha256Hash               0      0.00%     90.01% # attempts to use FU when none available (Count)
system.cpu.statFuBusy::SimdSha256Hash2              0      0.00%     90.01% # attempts to use FU when none available (Count)
system.cpu.statFuBusy::SimdShaSigma2                0      0.00%     90.01% # attempts to use FU when none available (Count)
system.cpu.statFuBusy::SimdShaSigma3                0      0.00%     90.01% # attempts to use FU when none available (Count)
system.cpu.statFuBusy::SimdSha3                     0      0.00%     90.01% # attempts to use FU when none available (Count)
system.cpu.statFuBusy::SimdSm4e                     0      0.00%     90.01% # attempts to use FU when none available (Count)
system.cpu.statFuBusy::SimdCrc                      0      0.00%     90.01% # attempts to use FU when none available (Count)
system.cpu.statFuBusy::SimdPredAlu                  0      0.00%     90.01% # attempts to use FU when none available (Count)
system.cpu.statFuBusy::SimdDotProd                  0      0.00%     90.01% # attempts to use FU when none available (Count)
system.cpu.statFuBusy::Matrix                       0      0.00%     90.01% # attempts to use FU when none available (Count)
system.cpu.statFuBusy::MatrixMov                    0      0.00%     90.01% # attempts to use FU when none available (Count)
system.cpu.statFuBusy::MatrixOP                     0      0.00%     90.01% # attempts to use FU when none available (Count)
system.cpu.statFuBusy::MemRead                  12286      5.98%     95.99% # attempts to use FU when none available (Count)
system.cpu.statFuBusy::MemWrite                    19      0.01%     96.00% # attempts to use FU when none available (Count)
system.cpu.statFuBusy::FloatMemRead                12      0.01%     96.01% # attempts to use FU when none available (Count)
system.cpu.statFuBusy::FloatMemWrite             8201      3.99%    100.00% # attempts to use FU when none available (Count)
system.cpu.statFuBusy::InstPrefetch                 0      0.00%    100.00% # attempts to use FU when none available (Count)
system.cpu.statFuBusy::SimdUnitStrideLoad            0      0.00%    100.00% # attempts to use FU when none available (Count)
system.cpu.statFuBusy::SimdUnitStrideStore            0      0.00%    100.00% # attempts to use FU when none available (Count)
system.cpu.statFuBusy::SimdUnitStrideMaskLoad            0      0.00%    100.00% # attempts to use FU when none available (Count)
system.cpu.statFuBusy::SimdUnitStrideMaskStore            0      0.00%    100.00% # attempts to use FU when none available (Count)
system.cpu.statFuBusy::SimdStridedLoad              0      0.00%    100.00% # attempts to use FU when none available (Count)
system.cpu.statFuBusy::SimdStridedStore             0      0.00%    100.00% # attempts to use FU when none available (Count)
system.cpu.statFuBusy::SimdIndexedLoad              0      0.00%    100.00% # attempts to use FU when none available (Count)
system.cpu.statFuBusy::SimdIndexedStore             0      0.00%    100.00% # attempts to use FU when none available (Count)
system.cpu.statFuBusy::SimdWholeRegisterLoad            0      0.00%    100.00% # attempts to use FU when none available (Count)
system.cpu.statFuBusy::SimdWholeRegisterStore            0      0.00%    100.00% # attempts to use FU when none available (Count)
system.cpu.statFuBusy::SimdUnitStrideFaultOnlyFirstLoad            0      0.00%    100.00% # attempts to use FU when none available (Count)
system.cpu.statFuBusy::SimdUnitStrideSegmentedLoad            0      0.00%    100.00% # attempts to use FU when none available (Count)
system.cpu.statFuBusy::SimdUnitStrideSegmentedStore            0      0.00%    100.00% # attempts to use FU when none available (Count)
system.cpu.statFuBusy::SimdUnitStrideSegmentedFaultOnlyFirstLoad            0      0.00%    100.00% # attempts to use FU when none available (Count)
system.cpu.statFuBusy::SimdStrideSegmentedLoad            0      0.00%    100.00% # attempts to use FU when none available (Count)
system.cpu.statFuBusy::SimdStrideSegmentedStore            0      0.00%    100.00% # attempts to use FU when none available (Count)
system.cpu.statFuBusy::SimdExt                      0      0.00%    100.00% # attempts to use FU when none available (Count)
system.cpu.statFuBusy::SimdFloatExt                 0      0.00%    100.00% # attempts to use FU when none available (Count)
system.cpu.statFuBusy::SimdConfig                   0      0.00%    100.00% # attempts to use FU when none available (Count)
system.cpu.statFuBusy::SimdBf16Add                  0      0.00%    100.00% # attempts to use FU when none available (Count)
system.cpu.statFuBusy::SimdBf16Cmp                  0      0.00%    100.00% # attempts to use FU when none available (Count)
system.cpu.statFuBusy::SimdBf16Cvt                  0      0.00%    100.00% # attempts to use FU when none available (Count)
system.cpu.statFuBusy::SimdBf16DotProd              0      0.00%    100.00% # attempts to use FU when none available (Count)
system.cpu.statFuBusy::SimdBf16MatMultAcc            0      0.00%    100.00% # attempts to use FU when none available (Count)
system.cpu.statFuBusy::SimdBf16Mult                 0      0.00%    100.00% # attempts to use FU when none available (Count)
system.cpu.statFuBusy::SimdBf16MultAcc              0      0.00%    100.00% # attempts to use FU when none available (Count)
system.cpu.statFuBusy::Bf16Cvt                      0      0.00%    100.00% # attempts to use FU when none available (Count)
system.cpu.statFuBusy::System                       0      0.00%    100.00% # attempts to use FU when none available (Count)
system.cpu.issuedInstType_0::No_OpClass        850763      1.22%      1.22% # Number of instructions issued per FU type, per thread (Count)
system.cpu.issuedInstType_0::IntAlu          51187930     73.57%     74.80% # Number of instructions issued per FU type, per thread (Count)
system.cpu.issuedInstType_0::IntMult           121418      0.17%     74.97% # Number of instructions issued per FU type, per thread (Count)
system.cpu.issuedInstType_0::IntDiv            562430      0.81%     75.78% # Number of instructions issued per FU type, per thread (Count)
system.cpu.issuedInstType_0::FloatAdd          408044      0.59%     76.37% # Number of instructions issued per FU type, per thread (Count)
system.cpu.issuedInstType_0::FloatCmp               0      0.00%     76.37% # Number of instructions issued per FU type, per thread (Count)
system.cpu.issuedInstType_0::FloatCvt               0      0.00%     76.37% # Number of instructions issued per FU type, per thread (Count)
system.cpu.issuedInstType_0::FloatMult              0      0.00%     76.37% # Number of instructions issued per FU type, per thread (Count)
system.cpu.issuedInstType_0::FloatMultAcc            0      0.00%     76.37% # Number of instructions issued per FU type, per thread (Count)
system.cpu.issuedInstType_0::FloatDiv               0      0.00%     76.37% # Number of instructions issued per FU type, per thread (Count)
system.cpu.issuedInstType_0::FloatMisc              0      0.00%     76.37% # Number of instructions issued per FU type, per thread (Count)
system.cpu.issuedInstType_0::FloatSqrt              0      0.00%     76.37% # Number of instructions issued per FU type, per thread (Count)
system.cpu.issuedInstType_0::SimdAdd                0      0.00%     76.37% # Number of instructions issued per FU type, per thread (Count)
system.cpu.issuedInstType_0::SimdAddAcc             0      0.00%     76.37% # Number of instructions issued per FU type, per thread (Count)
system.cpu.issuedInstType_0::SimdAlu           670541      0.96%     77.33% # Number of instructions issued per FU type, per thread (Count)
system.cpu.issuedInstType_0::SimdCmp                0      0.00%     77.33% # Number of instructions issued per FU type, per thread (Count)
system.cpu.issuedInstType_0::SimdCvt            81971      0.12%     77.45% # Number of instructions issued per FU type, per thread (Count)
system.cpu.issuedInstType_0::SimdMisc          268102      0.39%     77.83% # Number of instructions issued per FU type, per thread (Count)
system.cpu.issuedInstType_0::SimdMult               0      0.00%     77.83% # Number of instructions issued per FU type, per thread (Count)
system.cpu.issuedInstType_0::SimdMultAcc            0      0.00%     77.83% # Number of instructions issued per FU type, per thread (Count)
system.cpu.issuedInstType_0::SimdMatMultAcc            0      0.00%     77.83% # Number of instructions issued per FU type, per thread (Count)
system.cpu.issuedInstType_0::SimdShift              0      0.00%     77.83% # Number of instructions issued per FU type, per thread (Count)
system.cpu.issuedInstType_0::SimdShiftAcc            0      0.00%     77.83% # Number of instructions issued per FU type, per thread (Count)
system.cpu.issuedInstType_0::SimdDiv                0      0.00%     77.83% # Number of instructions issued per FU type, per thread (Count)
system.cpu.issuedInstType_0::SimdSqrt               0      0.00%     77.83% # Number of instructions issued per FU type, per thread (Count)
system.cpu.issuedInstType_0::SimdFloatAdd       594910      0.86%     78.69% # Number of instructions issued per FU type, per thread (Count)
system.cpu.issuedInstType_0::SimdFloatAlu            0      0.00%     78.69% # Number of instructions issued per FU type, per thread (Count)
system.cpu.issuedInstType_0::SimdFloatCmp            0      0.00%     78.69% # Number of instructions issued per FU type, per thread (Count)
system.cpu.issuedInstType_0::SimdFloatCvt       376818      0.54%     79.23% # Number of instructions issued per FU type, per thread (Count)
system.cpu.issuedInstType_0::SimdFloatDiv           14      0.00%     79.23% # Number of instructions issued per FU type, per thread (Count)
system.cpu.issuedInstType_0::SimdFloatMisc            0      0.00%     79.23% # Number of instructions issued per FU type, per thread (Count)
system.cpu.issuedInstType_0::SimdFloatMult       430680      0.62%     79.85% # Number of instructions issued per FU type, per thread (Count)
system.cpu.issuedInstType_0::SimdFloatMultAcc            0      0.00%     79.85% # Number of instructions issued per FU type, per thread (Count)
system.cpu.issuedInstType_0::SimdFloatMatMultAcc            0      0.00%     79.85% # Number of instructions issued per FU type, per thread (Count)
system.cpu.issuedInstType_0::SimdFloatSqrt            0      0.00%     79.85% # Number of instructions issued per FU type, per thread (Count)
system.cpu.issuedInstType_0::SimdReduceAdd            0      0.00%     79.85% # Number of instructions issued per FU type, per thread (Count)
system.cpu.issuedInstType_0::SimdReduceAlu            0      0.00%     79.85% # Number of instructions issued per FU type, per thread (Count)
system.cpu.issuedInstType_0::SimdReduceCmp            0      0.00%     79.85% # Number of instructions issued per FU type, per thread (Count)
system.cpu.issuedInstType_0::SimdFloatReduceAdd            0      0.00%     79.85% # Number of instructions issued per FU type, per thread (Count)
system.cpu.issuedInstType_0::SimdFloatReduceCmp            0      0.00%     79.85% # Number of instructions issued per FU type, per thread (Count)
system.cpu.issuedInstType_0::SimdAes                0      0.00%     79.85% # Number of instructions issued per FU type, per thread (Count)
system.cpu.issuedInstType_0::SimdAesMix             0      0.00%     79.85% # Number of instructions issued per FU type, per thread (Count)
system.cpu.issuedInstType_0::SimdSha1Hash            0      0.00%     79.85% # Number of instructions issued per FU type, per thread (Count)
system.cpu.issuedInstType_0::SimdSha1Hash2            0      0.00%     79.85% # Number of instructions issued per FU type, per thread (Count)
system.cpu.issuedInstType_0::SimdSha256Hash            0      0.00%     79.85% # Number of instructions issued per FU type, per thread (Count)
system.cpu.issuedInstType_0::SimdSha256Hash2            0      0.00%     79.85% # Number of instructions issued per FU type, per thread (Count)
system.cpu.issuedInstType_0::SimdShaSigma2            0      0.00%     79.85% # Number of instructions issued per FU type, per thread (Count)
system.cpu.issuedInstType_0::SimdShaSigma3            0      0.00%     79.85% # Number of instructions issued per FU type, per thread (Count)
system.cpu.issuedInstType_0::SimdSha3               0      0.00%     79.85% # Number of instructions issued per FU type, per thread (Count)
system.cpu.issuedInstType_0::SimdSm4e               0      0.00%     79.85% # Number of instructions issued per FU type, per thread (Count)
system.cpu.issuedInstType_0::SimdCrc                0      0.00%     79.85% # Number of instructions issued per FU type, per thread (Count)
system.cpu.issuedInstType_0::SimdPredAlu            0      0.00%     79.85% # Number of instructions issued per FU type, per thread (Count)
system.cpu.issuedInstType_0::SimdDotProd            0      0.00%     79.85% # Number of instructions issued per FU type, per thread (Count)
system.cpu.issuedInstType_0::Matrix                 0      0.00%     79.85% # Number of instructions issued per FU type, per thread (Count)
system.cpu.issuedInstType_0::MatrixMov              0      0.00%     79.85% # Number of instructions issued per FU type, per thread (Count)
system.cpu.issuedInstType_0::MatrixOP               0      0.00%     79.85% # Number of instructions issued per FU type, per thread (Count)
system.cpu.issuedInstType_0::MemRead          8133552     11.69%     91.54% # Number of instructions issued per FU type, per thread (Count)
system.cpu.issuedInstType_0::MemWrite         4699168      6.75%     98.29% # Number of instructions issued per FU type, per thread (Count)
system.cpu.issuedInstType_0::FloatMemRead       782792      1.13%     99.42% # Number of instructions issued per FU type, per thread (Count)
system.cpu.issuedInstType_0::FloatMemWrite       403575      0.58%    100.00% # Number of instructions issued per FU type, per thread (Count)
system.cpu.issuedInstType_0::InstPrefetch            0      0.00%    100.00% # Number of instructions issued per FU type, per thread (Count)
system.cpu.issuedInstType_0::SimdUnitStrideLoad            0      0.00%    100.00% # Number of instructions issued per FU type, per thread (Count)
system.cpu.issuedInstType_0::SimdUnitStrideStore            0      0.00%    100.00% # Number of instructions issued per FU type, per thread (Count)
system.cpu.issuedInstType_0::SimdUnitStrideMaskLoad            0      0.00%    100.00% # Number of instructions issued per FU type, per thread (Count)
system.cpu.issuedInstType_0::SimdUnitStrideMaskStore            0      0.00%    100.00% # Number of instructions issued per FU type, per thread (Count)
system.cpu.issuedInstType_0::SimdStridedLoad            0      0.00%    100.00% # Number of instructions issued per FU type, per thread (Count)
system.cpu.issuedInstType_0::SimdStridedStore            0      0.00%    100.00% # Number of instructions issued per FU type, per thread (Count)
system.cpu.issuedInstType_0::SimdIndexedLoad            0      0.00%    100.00% # Number of instructions issued per FU type, per thread (Count)
system.cpu.issuedInstType_0::SimdIndexedStore            0      0.00%    100.00% # Number of instructions issued per FU type, per thread (Count)
system.cpu.issuedInstType_0::SimdWholeRegisterLoad            0      0.00%    100.00% # Number of instructions issued per FU type, per thread (Count)
system.cpu.issuedInstType_0::SimdWholeRegisterStore            0      0.00%    100.00% # Number of instructions issued per FU type, per thread (Count)
system.cpu.issuedInstType_0::SimdUnitStrideFaultOnlyFirstLoad            0      0.00%    100.00% # Number of instructions issued per FU type, per thread (Count)
system.cpu.issuedInstType_0::SimdUnitStrideSegmentedLoad            0      0.00%    100.00% # Number of instructions issued per FU type, per thread (Count)
system.cpu.issuedInstType_0::SimdUnitStrideSegmentedStore            0      0.00%    100.00% # Number of instructions issued per FU type, per thread (Count)
system.cpu.issuedInstType_0::SimdUnitStrideSegmentedFaultOnlyFirstLoad            0      0.00%    100.00% # Number of instructions issued per FU type, per thread (Count)
system.cpu.issuedInstType_0::SimdStrideSegmentedLoad            0      0.00%    100.00% # Number of instructions issued per FU type, per thread (Count)
system.cpu.issuedInstType_0::SimdStrideSegmentedStore            0      0.00%    100.00% # Number of instructions issued per FU type, per thread (Count)
system.cpu.issuedInstType_0::SimdExt                0      0.00%    100.00% # Number of instructions issued per FU type, per thread (Count)
system.cpu.issuedInstType_0::SimdFloatExt            0      0.00%    100.00% # Number of instructions issued per FU type, per thread (Count)
system.cpu.issuedInstType_0::SimdConfig             0      0.00%    100.00% # Number of instructions issued per FU type, per thread (Count)
system.cpu.issuedInstType_0::SimdBf16Add            0      0.00%    100.00% # Number of instructions issued per FU type, per thread (Count)
system.cpu.issuedInstType_0::SimdBf16Cmp            0      0.00%    100.00% # Number of instructions issued per FU type, per thread (Count)
system.cpu.issuedInstType_0::SimdBf16Cvt            0      0.00%    100.00% # Number of instructions issued per FU type, per thread (Count)
system.cpu.issuedInstType_0::SimdBf16DotProd            0      0.00%    100.00% # Number of instructions issued per FU type, per thread (Count)
system.cpu.issuedInstType_0::SimdBf16MatMultAcc            0      0.00%    100.00% # Number of instructions issued per FU type, per thread (Count)
system.cpu.issuedInstType_0::SimdBf16Mult            0      0.00%    100.00% # Number of instructions issued per FU type, per thread (Count)
system.cpu.issuedInstType_0::SimdBf16MultAcc            0      0.00%    100.00% # Number of instructions issued per FU type, per thread (Count)
system.cpu.issuedInstType_0::Bf16Cvt                0      0.00%    100.00% # Number of instructions issued per FU type, per thread (Count)
system.cpu.issuedInstType_0::System                 0      0.00%    100.00% # Number of instructions issued per FU type, per thread (Count)
system.cpu.issuedInstType_0::total           69572708                       # Number of instructions issued per FU type, per thread (Count)
system.cpu.issueRate                         2.259830                       # Inst issue rate ((Count/Cycle))
system.cpu.fuBusy                              205482                       # FU busy when requested (Count)
system.cpu.fuBusyRate                        0.002953                       # FU busy rate (busy events/executed inst) ((Count/Count))
system.cpu.intInstQueueReads                160240225                       # Number of integer instruction queue reads (Count)
system.cpu.intInstQueueWrites                68331265                       # Number of integer instruction queue writes (Count)
system.cpu.intInstQueueWakeupAccesses        64365198                       # Number of integer instruction queue wakeup accesses (Count)
system.cpu.fpInstQueueReads                   9803948                       # Number of floating instruction queue reads (Count)
system.cpu.fpInstQueueWrites                  5140802                       # Number of floating instruction queue writes (Count)
system.cpu.fpInstQueueWakeupAccesses          4834601                       # Number of floating instruction queue wakeup accesses (Count)
system.cpu.vecInstQueueReads                        0                       # Number of vector instruction queue reads (Count)
system.cpu.vecInstQueueWrites                       0                       # Number of vector instruction queue writes (Count)
system.cpu.vecInstQueueWakeupAccesses               0                       # Number of vector instruction queue wakeup accesses (Count)
system.cpu.intAluAccesses                    64014919                       # Number of integer alu accesses (Count)
system.cpu.fpAluAccesses                      4912508                       # Number of floating point alu accesses (Count)
system.cpu.vecAluAccesses                           0                       # Number of vector alu accesses (Count)
system.cpu.numRecvResp                       12683353                       # Number of received responses (Count)
system.cpu.numRecvRespBytes                  89394163                       # Number of received response bytes (Byte)
system.cpu.recvRespAvgBW                         2.90                       # Average bandwidth of received responses ((Byte/Cycle))
system.cpu.recvRespAvgSize                       7.05                       # Average packet size per received response ((Byte/Count))
system.cpu.recvRespAvgRate                       0.41                       # Average rate of received responses per cycle ((Count/Cycle))
system.cpu.recvRespAvgRetryRate                  0.00                       # Average retry rate per received response ((Count/Count))
system.cpu.numSendRetryResp                         0                       # Number of retry responses sent (Count)
system.cpu.numSquashedInsts                    175121                       # Number of squashed instructions skipped in execute (Count)
system.cpu.numSwp                                   0                       # Number of swp insts executed (Count)
system.cpu.timesIdled                             597                       # Number of times that the entire CPU went into an idle state and unscheduled itself (Count)
system.cpu.idleCycles                           93682                       # Total number of cycles that the CPU has spent unscheduled due to idling (Cycle)
system.cpu.MemDepUnit__0.insertedLoads        9038423                       # Number of loads inserted to the mem dependence unit. (Count)
system.cpu.MemDepUnit__0.insertedStores       5263485                       # Number of stores inserted to the mem dependence unit. (Count)
system.cpu.MemDepUnit__0.conflictingLoads       338256                       # Number of conflicting loads. (Count)
system.cpu.MemDepUnit__0.conflictingStores       153158                       # Number of conflicting stores. (Count)
system.cpu.MemDepUnit__1.insertedLoads              0                       # Number of loads inserted to the mem dependence unit. (Count)
system.cpu.MemDepUnit__1.insertedStores             0                       # Number of stores inserted to the mem dependence unit. (Count)
system.cpu.MemDepUnit__1.conflictingLoads            0                       # Number of conflicting loads. (Count)
system.cpu.MemDepUnit__1.conflictingStores            0                       # Number of conflicting stores. (Count)
system.cpu.MemDepUnit__2.insertedLoads              0                       # Number of loads inserted to the mem dependence unit. (Count)
system.cpu.MemDepUnit__2.insertedStores             0                       # Number of stores inserted to the mem dependence unit. (Count)
system.cpu.MemDepUnit__2.conflictingLoads            0                       # Number of conflicting loads. (Count)
system.cpu.MemDepUnit__2.conflictingStores            0                       # Number of conflicting stores. (Count)
system.cpu.MemDepUnit__3.insertedLoads              0                       # Number of loads inserted to the mem dependence unit. (Count)
system.cpu.MemDepUnit__3.insertedStores             0                       # Number of stores inserted to the mem dependence unit. (Count)
system.cpu.MemDepUnit__3.conflictingLoads            0                       # Number of conflicting loads. (Count)
system.cpu.MemDepUnit__3.conflictingStores            0                       # Number of conflicting stores. (Count)
system.cpu.bac.fetchTargets                         0                       # Number of fetch targets created  (Count)
system.cpu.bac.branches                       7778222                       # Number of branches that BAC encountered (Count)
system.cpu.bac.predTakenBranches              3889604                       # Number of branches that BAC predicted taken. (Count)
system.cpu.bac.branchesNotLastuOp                   0                       # Number of branches that fetch encountered which are not the last uOp within a macrooperation. Jump to itself. (Count)
system.cpu.bac.branchMisspredict               157951                       # Number of mispredicted branches (Count)
system.cpu.bac.noBranchMisspredict              16489                       # Number of non-branch instructions mispredicted (Count)
system.cpu.bac.squashBranchDecode                8672                       # Number of branches squashed from decode (Count)
system.cpu.bac.squashBranchCommit              149279                       # Number of branches squashed from commit (Count)
system.cpu.bac.preDecUpdate::NoBranch               0                       # Number of branches extracted from the predecoder (Count)
system.cpu.bac.preDecUpdate::Return                 0                       # Number of branches extracted from the predecoder (Count)
system.cpu.bac.preDecUpdate::CallDirect             0                       # Number of branches extracted from the predecoder (Count)
system.cpu.bac.preDecUpdate::CallIndirect            0                       # Number of branches extracted from the predecoder (Count)
system.cpu.bac.preDecUpdate::DirectCond             0                       # Number of branches extracted from the predecoder (Count)
system.cpu.bac.preDecUpdate::DirectUncond            0                       # Number of branches extracted from the predecoder (Count)
system.cpu.bac.preDecUpdate::IndirectCond            0                       # Number of branches extracted from the predecoder (Count)
system.cpu.bac.preDecUpdate::IndirectUncond            0                       # Number of branches extracted from the predecoder (Count)
system.cpu.bac.preDecUpdate::total                  0                       # Number of branches extracted from the predecoder (Count)
system.cpu.bac.noHistByType::NoBranch               0                       # Number and type of branches that were undetected by the BPU. (Count)
system.cpu.bac.noHistByType::Return                 0                       # Number and type of branches that were undetected by the BPU. (Count)
system.cpu.bac.noHistByType::CallDirect             0                       # Number and type of branches that were undetected by the BPU. (Count)
system.cpu.bac.noHistByType::CallIndirect            0                       # Number and type of branches that were undetected by the BPU. (Count)
system.cpu.bac.noHistByType::DirectCond             0                       # Number and type of branches that were undetected by the BPU. (Count)
system.cpu.bac.noHistByType::DirectUncond            0                       # Number and type of branches that were undetected by the BPU. (Count)
system.cpu.bac.noHistByType::IndirectCond            0                       # Number and type of branches that were undetected by the BPU. (Count)
system.cpu.bac.noHistByType::IndirectUncond            0                       # Number and type of branches that were undetected by the BPU. (Count)
system.cpu.bac.noHistByType::total                  0                       # Number and type of branches that were undetected by the BPU. (Count)
system.cpu.bac.typeMissmatch                        0                       # Number branches where the branch type miss match (Count)
system.cpu.bac.multiBranchInst                      0                       # Number branches because its not the last branch. (Count)
system.cpu.bac.ftSizeDist::samples                  0                       # Number of bytes per fetch target (Count)
system.cpu.bac.ftSizeDist::mean                   nan                       # Number of bytes per fetch target (Count)
system.cpu.bac.ftSizeDist::stdev                  nan                       # Number of bytes per fetch target (Count)
system.cpu.bac.ftSizeDist::underflows               0                       # Number of bytes per fetch target (Count)
system.cpu.bac.ftSizeDist::0-3                      0                       # Number of bytes per fetch target (Count)
system.cpu.bac.ftSizeDist::4-7                      0                       # Number of bytes per fetch target (Count)
system.cpu.bac.ftSizeDist::8-11                     0                       # Number of bytes per fetch target (Count)
system.cpu.bac.ftSizeDist::12-15                    0                       # Number of bytes per fetch target (Count)
system.cpu.bac.ftSizeDist::16-19                    0                       # Number of bytes per fetch target (Count)
system.cpu.bac.ftSizeDist::20-23                    0                       # Number of bytes per fetch target (Count)
system.cpu.bac.ftSizeDist::24-27                    0                       # Number of bytes per fetch target (Count)
system.cpu.bac.ftSizeDist::28-31                    0                       # Number of bytes per fetch target (Count)
system.cpu.bac.ftSizeDist::32                       0                       # Number of bytes per fetch target (Count)
system.cpu.bac.ftSizeDist::overflows                0                       # Number of bytes per fetch target (Count)
system.cpu.bac.ftSizeDist::min_value                0                       # Number of bytes per fetch target (Count)
system.cpu.bac.ftSizeDist::max_value                0                       # Number of bytes per fetch target (Count)
system.cpu.bac.ftSizeDist::total                    0                       # Number of bytes per fetch target (Count)
system.cpu.bac.ftNumber::samples                    0                       # Number of fetch target inserted to the FTQ per cycle (Count)
system.cpu.bac.ftNumber::mean                     nan                       # Number of fetch target inserted to the FTQ per cycle (Count)
system.cpu.bac.ftNumber::stdev                    nan                       # Number of fetch target inserted to the FTQ per cycle (Count)
system.cpu.bac.ftNumber::underflows                 0                       # Number of fetch target inserted to the FTQ per cycle (Count)
system.cpu.bac.ftNumber::0                          0                       # Number of fetch target inserted to the FTQ per cycle (Count)
system.cpu.bac.ftNumber::1                          0                       # Number of fetch target inserted to the FTQ per cycle (Count)
system.cpu.bac.ftNumber::2                          0                       # Number of fetch target inserted to the FTQ per cycle (Count)
system.cpu.bac.ftNumber::3                          0                       # Number of fetch target inserted to the FTQ per cycle (Count)
system.cpu.bac.ftNumber::4                          0                       # Number of fetch target inserted to the FTQ per cycle (Count)
system.cpu.bac.ftNumber::overflows                  0                       # Number of fetch target inserted to the FTQ per cycle (Count)
system.cpu.bac.ftNumber::min_value                  0                       # Number of fetch target inserted to the FTQ per cycle (Count)
system.cpu.bac.ftNumber::max_value                  0                       # Number of fetch target inserted to the FTQ per cycle (Count)
system.cpu.bac.ftNumber::total                      0                       # Number of fetch target inserted to the FTQ per cycle (Count)
system.cpu.branchPred.lookups_0::NoBranch            0      0.00%      0.00% # Number of BP lookups (Count)
system.cpu.branchPred.lookups_0::Return        674019      8.67%      8.67% # Number of BP lookups (Count)
system.cpu.branchPred.lookups_0::CallDirect       681858      8.77%     17.43% # Number of BP lookups (Count)
system.cpu.branchPred.lookups_0::CallIndirect        16480      0.21%     17.64% # Number of BP lookups (Count)
system.cpu.branchPred.lookups_0::DirectCond      5815124     74.76%     92.41% # Number of BP lookups (Count)
system.cpu.branchPred.lookups_0::DirectUncond       387333      4.98%     97.38% # Number of BP lookups (Count)
system.cpu.branchPred.lookups_0::IndirectCond            0      0.00%     97.38% # Number of BP lookups (Count)
system.cpu.branchPred.lookups_0::IndirectUncond       203408      2.62%    100.00% # Number of BP lookups (Count)
system.cpu.branchPred.lookups_0::total        7778222                       # Number of BP lookups (Count)
system.cpu.branchPred.squashes_0::NoBranch            0      0.00%      0.00% # Number of branches that got squashed (completely removed) as an earlier branch was mispredicted. (Count)
system.cpu.branchPred.squashes_0::Return        28381      6.00%      6.00% # Number of branches that got squashed (completely removed) as an earlier branch was mispredicted. (Count)
system.cpu.branchPred.squashes_0::CallDirect        52672     11.14%     17.14% # Number of branches that got squashed (completely removed) as an earlier branch was mispredicted. (Count)
system.cpu.branchPred.squashes_0::CallIndirect           23      0.00%     17.14% # Number of branches that got squashed (completely removed) as an earlier branch was mispredicted. (Count)
system.cpu.branchPred.squashes_0::DirectCond       342777     72.49%     89.63% # Number of branches that got squashed (completely removed) as an earlier branch was mispredicted. (Count)
system.cpu.branchPred.squashes_0::DirectUncond        29929      6.33%     95.96% # Number of branches that got squashed (completely removed) as an earlier branch was mispredicted. (Count)
system.cpu.branchPred.squashes_0::IndirectCond            0      0.00%     95.96% # Number of branches that got squashed (completely removed) as an earlier branch was mispredicted. (Count)
system.cpu.branchPred.squashes_0::IndirectUncond        19106      4.04%    100.00% # Number of branches that got squashed (completely removed) as an earlier branch was mispredicted. (Count)
system.cpu.branchPred.squashes_0::total        472888                       # Number of branches that got squashed (completely removed) as an earlier branch was mispredicted. (Count)
system.cpu.branchPred.corrected_0::NoBranch            0      0.00%      0.00% # Number of branches that got corrected but not yet commited. Branches get corrected by decode or after execute. Also a branch misprediction can be detected out-of-order. Therefore, a corrected branch might not end up beeing committed in case an even earlier branch was mispredicted (Count)
system.cpu.branchPred.corrected_0::Return         8317      5.27%      5.27% # Number of branches that got corrected but not yet commited. Branches get corrected by decode or after execute. Also a branch misprediction can be detected out-of-order. Therefore, a corrected branch might not end up beeing committed in case an even earlier branch was mispredicted (Count)
system.cpu.branchPred.corrected_0::CallDirect         8439      5.34%     10.61% # Number of branches that got corrected but not yet commited. Branches get corrected by decode or after execute. Also a branch misprediction can be detected out-of-order. Therefore, a corrected branch might not end up beeing committed in case an even earlier branch was mispredicted (Count)
system.cpu.branchPred.corrected_0::CallIndirect           48      0.03%     10.64% # Number of branches that got corrected but not yet commited. Branches get corrected by decode or after execute. Also a branch misprediction can be detected out-of-order. Therefore, a corrected branch might not end up beeing committed in case an even earlier branch was mispredicted (Count)
system.cpu.branchPred.corrected_0::DirectCond       132694     84.01%     94.65% # Number of branches that got corrected but not yet commited. Branches get corrected by decode or after execute. Also a branch misprediction can be detected out-of-order. Therefore, a corrected branch might not end up beeing committed in case an even earlier branch was mispredicted (Count)
system.cpu.branchPred.corrected_0::DirectUncond          233      0.15%     94.80% # Number of branches that got corrected but not yet commited. Branches get corrected by decode or after execute. Also a branch misprediction can be detected out-of-order. Therefore, a corrected branch might not end up beeing committed in case an even earlier branch was mispredicted (Count)
system.cpu.branchPred.corrected_0::IndirectCond            0      0.00%     94.80% # Number of branches that got corrected but not yet commited. Branches get corrected by decode or after execute. Also a branch misprediction can be detected out-of-order. Therefore, a corrected branch might not end up beeing committed in case an even earlier branch was mispredicted (Count)
system.cpu.branchPred.corrected_0::IndirectUncond         8220      5.20%    100.00% # Number of branches that got corrected but not yet commited. Branches get corrected by decode or after execute. Also a branch misprediction can be detected out-of-order. Therefore, a corrected branch might not end up beeing committed in case an even earlier branch was mispredicted (Count)
system.cpu.branchPred.corrected_0::total       157951                       # Number of branches that got corrected but not yet commited. Branches get corrected by decode or after execute. Also a branch misprediction can be detected out-of-order. Therefore, a corrected branch might not end up beeing committed in case an even earlier branch was mispredicted (Count)
system.cpu.branchPred.earlyResteers_0::NoBranch            0      0.00%      0.00% # Number of branches that got redirected after decode. (Count)
system.cpu.branchPred.earlyResteers_0::Return            0      0.00%      0.00% # Number of branches that got redirected after decode. (Count)
system.cpu.branchPred.earlyResteers_0::CallDirect         8439     97.31%     97.31% # Number of branches that got redirected after decode. (Count)
system.cpu.branchPred.earlyResteers_0::CallIndirect            0      0.00%     97.31% # Number of branches that got redirected after decode. (Count)
system.cpu.branchPred.earlyResteers_0::DirectCond            0      0.00%     97.31% # Number of branches that got redirected after decode. (Count)
system.cpu.branchPred.earlyResteers_0::DirectUncond          233      2.69%    100.00% # Number of branches that got redirected after decode. (Count)
system.cpu.branchPred.earlyResteers_0::IndirectCond            0      0.00%    100.00% # Number of branches that got redirected after decode. (Count)
system.cpu.branchPred.earlyResteers_0::IndirectUncond            0      0.00%    100.00% # Number of branches that got redirected after decode. (Count)
system.cpu.branchPred.earlyResteers_0::total         8672                       # Number of branches that got redirected after decode. (Count)
system.cpu.branchPred.committed_0::NoBranch            0      0.00%      0.00% # Number of branches finally committed  (Count)
system.cpu.branchPred.committed_0::Return       645638      8.84%      8.84% # Number of branches finally committed  (Count)
system.cpu.branchPred.committed_0::CallDirect       629186      8.61%     17.45% # Number of branches finally committed  (Count)
system.cpu.branchPred.committed_0::CallIndirect        16457      0.23%     17.68% # Number of branches finally committed  (Count)
system.cpu.branchPred.committed_0::DirectCond      5472346     74.91%     92.58% # Number of branches finally committed  (Count)
system.cpu.branchPred.committed_0::DirectUncond       357404      4.89%     97.48% # Number of branches finally committed  (Count)
system.cpu.branchPred.committed_0::IndirectCond            0      0.00%     97.48% # Number of branches finally committed  (Count)
system.cpu.branchPred.committed_0::IndirectUncond       184302      2.52%    100.00% # Number of branches finally committed  (Count)
system.cpu.branchPred.committed_0::total      7305333                       # Number of branches finally committed  (Count)
system.cpu.branchPred.mispredicted_0::NoBranch            0      0.00%      0.00% # Number of committed branches that were mispredicted. (Count)
system.cpu.branchPred.mispredicted_0::Return         8304      5.60%      5.60% # Number of committed branches that were mispredicted. (Count)
system.cpu.branchPred.mispredicted_0::CallDirect         7108      4.80%     10.40% # Number of committed branches that were mispredicted. (Count)
system.cpu.branchPred.mispredicted_0::CallIndirect           46      0.03%     10.43% # Number of committed branches that were mispredicted. (Count)
system.cpu.branchPred.mispredicted_0::DirectCond       124399     83.94%     94.37% # Number of committed branches that were mispredicted. (Count)
system.cpu.branchPred.mispredicted_0::DirectUncond          130      0.09%     94.45% # Number of committed branches that were mispredicted. (Count)
system.cpu.branchPred.mispredicted_0::IndirectCond            0      0.00%     94.45% # Number of committed branches that were mispredicted. (Count)
system.cpu.branchPred.mispredicted_0::IndirectUncond         8219      5.55%    100.00% # Number of committed branches that were mispredicted. (Count)
system.cpu.branchPred.mispredicted_0::total       148206                       # Number of committed branches that were mispredicted. (Count)
system.cpu.branchPred.mispredictDueToPredictor_0::NoBranch            0      0.00%      0.00% # Number of committed branches that were mispredicted by the predictor. (Count)
system.cpu.branchPred.mispredictDueToPredictor_0::Return            0      0.00%      0.00% # Number of committed branches that were mispredicted by the predictor. (Count)
system.cpu.branchPred.mispredictDueToPredictor_0::CallDirect            0      0.00%      0.00% # Number of committed branches that were mispredicted by the predictor. (Count)
system.cpu.branchPred.mispredictDueToPredictor_0::CallIndirect           24      0.03%      0.03% # Number of committed branches that were mispredicted by the predictor. (Count)
system.cpu.branchPred.mispredictDueToPredictor_0::DirectCond        78868     99.95%     99.98% # Number of committed branches that were mispredicted by the predictor. (Count)
system.cpu.branchPred.mispredictDueToPredictor_0::DirectUncond            0      0.00%     99.98% # Number of committed branches that were mispredicted by the predictor. (Count)
system.cpu.branchPred.mispredictDueToPredictor_0::IndirectCond            0      0.00%     99.98% # Number of committed branches that were mispredicted by the predictor. (Count)
system.cpu.branchPred.mispredictDueToPredictor_0::IndirectUncond           15      0.02%    100.00% # Number of committed branches that were mispredicted by the predictor. (Count)
system.cpu.branchPred.mispredictDueToPredictor_0::total        78907                       # Number of committed branches that were mispredicted by the predictor. (Count)
system.cpu.branchPred.mispredictDueToBTBMiss_0::NoBranch            0      0.00%      0.00% # Number of committed branches that were mispredicted because of a BTB miss. (Count)
system.cpu.branchPred.mispredictDueToBTBMiss_0::Return         8304     11.98%     11.98% # Number of committed branches that were mispredicted because of a BTB miss. (Count)
system.cpu.branchPred.mispredictDueToBTBMiss_0::CallDirect         7108     10.26%     22.24% # Number of committed branches that were mispredicted because of a BTB miss. (Count)
system.cpu.branchPred.mispredictDueToBTBMiss_0::CallIndirect           22      0.03%     22.27% # Number of committed branches that were mispredicted because of a BTB miss. (Count)
system.cpu.branchPred.mispredictDueToBTBMiss_0::DirectCond        45531     65.70%     87.97% # Number of committed branches that were mispredicted because of a BTB miss. (Count)
system.cpu.branchPred.mispredictDueToBTBMiss_0::DirectUncond          130      0.19%     88.16% # Number of committed branches that were mispredicted because of a BTB miss. (Count)
system.cpu.branchPred.mispredictDueToBTBMiss_0::IndirectCond            0      0.00%     88.16% # Number of committed branches that were mispredicted because of a BTB miss. (Count)
system.cpu.branchPred.mispredictDueToBTBMiss_0::IndirectUncond         8204     11.84%    100.00% # Number of committed branches that were mispredicted because of a BTB miss. (Count)
system.cpu.branchPred.mispredictDueToBTBMiss_0::total        69299                       # Number of committed branches that were mispredicted because of a BTB miss. (Count)
system.cpu.branchPred.targetProvider_0::NoTarget      3888618     49.99%     49.99% # The component providing the target for taken branches (Count)
system.cpu.branchPred.targetProvider_0::BTB      3224060     41.45%     91.44% # The component providing the target for taken branches (Count)
system.cpu.branchPred.targetProvider_0::RAS       665544      8.56%    100.00% # The component providing the target for taken branches (Count)
system.cpu.branchPred.targetProvider_0::Indirect            0      0.00%    100.00% # The component providing the target for taken branches (Count)
system.cpu.branchPred.targetProvider_0::total      7778222                       # The component providing the target for taken branches (Count)
system.cpu.branchPred.targetWrong_0::NoBranch       118715     75.16%     75.16% # Number of branches where the target was incorrect or not available at prediction time. (Count)
system.cpu.branchPred.targetWrong_0::Return        39232     24.84%    100.00% # Number of branches where the target was incorrect or not available at prediction time. (Count)
system.cpu.branchPred.targetWrong_0::CallDirect            0      0.00%    100.00% # Number of branches where the target was incorrect or not available at prediction time. (Count)
system.cpu.branchPred.targetWrong_0::CallIndirect            0      0.00%    100.00% # Number of branches where the target was incorrect or not available at prediction time. (Count)
system.cpu.branchPred.targetWrong_0::DirectCond            0      0.00%    100.00% # Number of branches where the target was incorrect or not available at prediction time. (Count)
system.cpu.branchPred.targetWrong_0::DirectUncond            0      0.00%    100.00% # Number of branches where the target was incorrect or not available at prediction time. (Count)
system.cpu.branchPred.targetWrong_0::IndirectCond            0      0.00%    100.00% # Number of branches where the target was incorrect or not available at prediction time. (Count)
system.cpu.branchPred.targetWrong_0::IndirectUncond            0      0.00%    100.00% # Number of branches where the target was incorrect or not available at prediction time. (Count)
system.cpu.branchPred.targetWrong_0::total       157947                       # Number of branches where the target was incorrect or not available at prediction time. (Count)
system.cpu.branchPred.condPredicted           5815124                       # Number of conditional branches predicted (Count)
system.cpu.branchPred.condPredictedTaken      2013841                       # Number of conditional branches predicted as taken (Count)
system.cpu.branchPred.condIncorrect            148206                       # Number of conditional branches incorrect (Count)
system.cpu.branchPred.predTakenBTBMiss          70295                       # Number of branches predicted taken but missed in BTB (Count)
system.cpu.branchPred.BTBLookups              7778222                       # Number of BTB lookups (Count)
system.cpu.branchPred.BTBUpdates               118758                       # Number of BTB updates (Count)
system.cpu.branchPred.BTBHits                 4916395                       # Number of BTB hits (Count)
system.cpu.branchPred.BTBHitRatio            0.632072                       # BTB Hit Ratio (Ratio)
system.cpu.branchPred.BTBMispredicted           70792                       # Number BTB mispredictions. No target found or target wrong (Count)
system.cpu.branchPred.indirectLookups          203412                       # Number of indirect predictor lookups. (Count)
system.cpu.branchPred.indirectHits                  0                       # Number of indirect target hits. (Count)
system.cpu.branchPred.indirectMisses           203412                       # Number of indirect misses. (Count)
system.cpu.branchPred.indirectMispredicted            0                       # Number of mispredicted indirect branches. (Count)
system.cpu.branchPred.btb.lookups::NoBranch            0      0.00%      0.00% # Number of BTB lookups (Count)
system.cpu.branchPred.btb.lookups::Return       674019      8.67%      8.67% # Number of BTB lookups (Count)
system.cpu.branchPred.btb.lookups::CallDirect       681858      8.77%     17.43% # Number of BTB lookups (Count)
system.cpu.branchPred.btb.lookups::CallIndirect        16480      0.21%     17.64% # Number of BTB lookups (Count)
system.cpu.branchPred.btb.lookups::DirectCond      5815124     74.76%     92.41% # Number of BTB lookups (Count)
system.cpu.branchPred.btb.lookups::DirectUncond       387333      4.98%     97.38% # Number of BTB lookups (Count)
system.cpu.branchPred.btb.lookups::IndirectCond            0      0.00%     97.38% # Number of BTB lookups (Count)
system.cpu.branchPred.btb.lookups::IndirectUncond       203408      2.62%    100.00% # Number of BTB lookups (Count)
system.cpu.branchPred.btb.lookups::total      7778222                       # Number of BTB lookups (Count)
system.cpu.branchPred.btb.misses::NoBranch            0      0.00%      0.00% # Number of BTB misses (Count)
system.cpu.branchPred.btb.misses::Return         8475      0.30%      0.30% # Number of BTB misses (Count)
system.cpu.branchPred.btb.misses::CallDirect         8656      0.30%      0.60% # Number of BTB misses (Count)
system.cpu.branchPred.btb.misses::CallIndirect           31      0.00%      0.60% # Number of BTB misses (Count)
system.cpu.branchPred.btb.misses::DirectCond      2819664     98.53%     99.13% # Number of BTB misses (Count)
system.cpu.branchPred.btb.misses::DirectUncond         8556      0.30%     99.43% # Number of BTB misses (Count)
system.cpu.branchPred.btb.misses::IndirectCond            0      0.00%     99.43% # Number of BTB misses (Count)
system.cpu.branchPred.btb.misses::IndirectUncond        16445      0.57%    100.00% # Number of BTB misses (Count)
system.cpu.branchPred.btb.misses::total       2861827                       # Number of BTB misses (Count)
system.cpu.branchPred.btb.updates::NoBranch            0      0.00%      0.00% # Number of BTB updates (Count)
system.cpu.branchPred.btb.updates::Return         8317      7.00%      7.00% # Number of BTB updates (Count)
system.cpu.branchPred.btb.updates::CallDirect         8439      7.11%     14.11% # Number of BTB updates (Count)
system.cpu.branchPred.btb.updates::CallIndirect           48      0.04%     14.15% # Number of BTB updates (Count)
system.cpu.branchPred.btb.updates::DirectCond        93501     78.73%     92.88% # Number of BTB updates (Count)
system.cpu.branchPred.btb.updates::DirectUncond          233      0.20%     93.08% # Number of BTB updates (Count)
system.cpu.branchPred.btb.updates::IndirectCond            0      0.00%     93.08% # Number of BTB updates (Count)
system.cpu.branchPred.btb.updates::IndirectUncond         8220      6.92%    100.00% # Number of BTB updates (Count)
system.cpu.branchPred.btb.updates::total       118758                       # Number of BTB updates (Count)
system.cpu.branchPred.btb.mispredict::NoBranch            0      0.00%      0.00% # Number of BTB mispredictions. No target found or target wrong. (Count)
system.cpu.branchPred.btb.mispredict::Return         8317      7.00%      7.00% # Number of BTB mispredictions. No target found or target wrong. (Count)
system.cpu.branchPred.btb.mispredict::CallDirect         8439      7.11%     14.11% # Number of BTB mispredictions. No target found or target wrong. (Count)
system.cpu.branchPred.btb.mispredict::CallIndirect           48      0.04%     14.15% # Number of BTB mispredictions. No target found or target wrong. (Count)
system.cpu.branchPred.btb.mispredict::DirectCond        93501     78.73%     92.88% # Number of BTB mispredictions. No target found or target wrong. (Count)
system.cpu.branchPred.btb.mispredict::DirectUncond          233      0.20%     93.08% # Number of BTB mispredictions. No target found or target wrong. (Count)
system.cpu.branchPred.btb.mispredict::IndirectCond            0      0.00%     93.08% # Number of BTB mispredictions. No target found or target wrong. (Count)
system.cpu.branchPred.btb.mispredict::IndirectUncond         8220      6.92%    100.00% # Number of BTB mispredictions. No target found or target wrong. (Count)
system.cpu.branchPred.btb.mispredict::total       118758                       # Number of BTB mispredictions. No target found or target wrong. (Count)
system.cpu.branchPred.btb.power_state.pwrStateResidencyTicks::UNDEFINED  12560973600                       # Cumulative time (in ticks) in various power states (Tick)
system.cpu.branchPred.conditionalBranchPred.loop_predictor.used        61840                       # Number of times the loop predictor is the provider. (Count)
system.cpu.branchPred.conditionalBranchPred.loop_predictor.correct        59000                       # Number of times the loop predictor is the provider and the prediction is correct (Count)
system.cpu.branchPred.conditionalBranchPred.loop_predictor.wrong         2840                       # Number of times the loop predictor is the provider and the prediction is wrong (Count)
system.cpu.branchPred.conditionalBranchPred.tage.longestMatchProviderCorrect      2200082                       # Number of times TAGE Longest Match is the provider and the prediction is correct (Count)
system.cpu.branchPred.conditionalBranchPred.tage.altMatchProviderCorrect        33717                       # Number of times TAGE Alt Match is the provider and the prediction is correct (Count)
system.cpu.branchPred.conditionalBranchPred.tage.bimodalAltMatchProviderCorrect          589                       # Number of times TAGE Alt Match is the bimodal and it is the provider and the prediction is correct (Count)
system.cpu.branchPred.conditionalBranchPred.tage.bimodalProviderCorrect      3099590                       # Number of times there are no hits on the TAGE tables and the bimodal prediction is correct (Count)
system.cpu.branchPred.conditionalBranchPred.tage.longestMatchProviderWrong        54242                       # Number of times TAGE Longest Match is the provider and the prediction is wrong (Count)
system.cpu.branchPred.conditionalBranchPred.tage.altMatchProviderWrong        21608                       # Number of times TAGE Alt Match is the provider and the prediction is wrong (Count)
system.cpu.branchPred.conditionalBranchPred.tage.bimodalAltMatchProviderWrong          106                       # Number of times TAGE Alt Match is the bimodal and it is the provider and the prediction is wrong (Count)
system.cpu.branchPred.conditionalBranchPred.tage.bimodalProviderWrong          572                       # Number of times there are no hits on the TAGE tables and the bimodal prediction is wrong (Count)
system.cpu.branchPred.conditionalBranchPred.tage.altMatchProviderWouldHaveHit        14670                       # Number of times TAGE Longest Match is the provider, the prediction is wrong and Alt Match prediction was correct (Count)
system.cpu.branchPred.conditionalBranchPred.tage.longestMatchProviderWouldHaveHit        13237                       # Number of times TAGE Alt Match is the provider, the prediction is wrong and Longest Match prediction was correct (Count)
system.cpu.branchPred.conditionalBranchPred.tage.longestMatchProvider::0            0                       # TAGE provider for longest match (Count)
system.cpu.branchPred.conditionalBranchPred.tage.longestMatchProvider::1       562743                       # TAGE provider for longest match (Count)
system.cpu.branchPred.conditionalBranchPred.tage.longestMatchProvider::2       665945                       # TAGE provider for longest match (Count)
system.cpu.branchPred.conditionalBranchPred.tage.longestMatchProvider::3       309282                       # TAGE provider for longest match (Count)
system.cpu.branchPred.conditionalBranchPred.tage.longestMatchProvider::4       117655                       # TAGE provider for longest match (Count)
system.cpu.branchPred.conditionalBranchPred.tage.longestMatchProvider::5       118025                       # TAGE provider for longest match (Count)
system.cpu.branchPred.conditionalBranchPred.tage.longestMatchProvider::6       139868                       # TAGE provider for longest match (Count)
system.cpu.branchPred.conditionalBranchPred.tage.longestMatchProvider::7       106300                       # TAGE provider for longest match (Count)
system.cpu.branchPred.conditionalBranchPred.tage.longestMatchProvider::8        84822                       # TAGE provider for longest match (Count)
system.cpu.branchPred.conditionalBranchPred.tage.longestMatchProvider::9        74534                       # TAGE provider for longest match (Count)
system.cpu.branchPred.conditionalBranchPred.tage.longestMatchProvider::10        41289                       # TAGE provider for longest match (Count)
system.cpu.branchPred.conditionalBranchPred.tage.longestMatchProvider::11        54638                       # TAGE provider for longest match (Count)
system.cpu.branchPred.conditionalBranchPred.tage.longestMatchProvider::12        34548                       # TAGE provider for longest match (Count)
system.cpu.branchPred.conditionalBranchPred.tage.altMatchProvider::0      1326003                       # TAGE provider for alt match (Count)
system.cpu.branchPred.conditionalBranchPred.tage.altMatchProvider::1       130374                       # TAGE provider for alt match (Count)
system.cpu.branchPred.conditionalBranchPred.tage.altMatchProvider::2       143801                       # TAGE provider for alt match (Count)
system.cpu.branchPred.conditionalBranchPred.tage.altMatchProvider::3       122998                       # TAGE provider for alt match (Count)
system.cpu.branchPred.conditionalBranchPred.tage.altMatchProvider::4        93865                       # TAGE provider for alt match (Count)
system.cpu.branchPred.conditionalBranchPred.tage.altMatchProvider::5       135784                       # TAGE provider for alt match (Count)
system.cpu.branchPred.conditionalBranchPred.tage.altMatchProvider::6        88738                       # TAGE provider for alt match (Count)
system.cpu.branchPred.conditionalBranchPred.tage.altMatchProvider::7        89884                       # TAGE provider for alt match (Count)
system.cpu.branchPred.conditionalBranchPred.tage.altMatchProvider::8        76657                       # TAGE provider for alt match (Count)
system.cpu.branchPred.conditionalBranchPred.tage.altMatchProvider::9        39808                       # TAGE provider for alt match (Count)
system.cpu.branchPred.conditionalBranchPred.tage.altMatchProvider::10        40144                       # TAGE provider for alt match (Count)
system.cpu.branchPred.conditionalBranchPred.tage.altMatchProvider::11        21593                       # TAGE provider for alt match (Count)
system.cpu.branchPred.conditionalBranchPred.tage.altMatchProvider::12            0                       # TAGE provider for alt match (Count)
system.cpu.branchPred.indirectBranchPred.lookups       203412                       # Number of lookups (Count)
system.cpu.branchPred.indirectBranchPred.hits            0                       # Number of hits of a tag (Count)
system.cpu.branchPred.indirectBranchPred.misses       203412                       # Number of misses (Count)
system.cpu.branchPred.indirectBranchPred.targetRecords         8268                       # Number of targets that where recorded/installed in the cache (Count)
system.cpu.branchPred.indirectBranchPred.indirectRecords       228156                       # Number of indirect branches/calls recorded in the indirect hist (Count)
system.cpu.branchPred.indirectBranchPred.speculativeOverflows            1                       # Number of times more than the allowed capacity for speculative branches/calls where in flight and destroy the path history (Count)
system.cpu.branchPred.ras.pushes               726336                       # Number of times a PC was pushed onto the RAS (Count)
system.cpu.branchPred.ras.pops                 726331                       # Number of times a PC was poped from the RAS (Count)
system.cpu.branchPred.ras.squashes              80693                       # Number of times the stack operation was squashed due to wrong speculation. (Count)
system.cpu.branchPred.ras.used                 645638                       # Number of times the RAS is the provider (Count)
system.cpu.branchPred.ras.correct              637334                       # Number of times the RAS is the provider and the prediction is correct (Count)
system.cpu.branchPred.ras.incorrect              8304                       # Number of times the RAS is the provider and the prediction is wrong (Count)
system.cpu.commit.status::running            30387499     99.00%     99.00% # Number of cycles commit is running (Cycle)
system.cpu.commit.status::idle                      1      0.00%     99.00% # Number of cycles commit is idle (Cycle)
system.cpu.commit.status::robSquashing         304833      0.99%    100.00% # Number of cycles commit is squashing the ROB (Cycle)
system.cpu.commit.status::trapPending             686      0.00%    100.00% # Number of cycles commit is processing a trap (Cycle)
system.cpu.commit.commitSquashedInsts         3008837                       # The number of squashed insts skipped by commit (Count)
system.cpu.commit.branchMispredicts            149307                       # The number of times a branch was mispredicted (Count)
system.cpu.commit.numCommittedDist::samples     30222431                       # Number of insts commited each cycle (Count)
system.cpu.commit.numCommittedDist::mean     2.231370                       # Number of insts commited each cycle (Count)
system.cpu.commit.numCommittedDist::stdev     2.524307                       # Number of insts commited each cycle (Count)
system.cpu.commit.numCommittedDist::underflows            0      0.00%      0.00% # Number of insts commited each cycle (Count)
system.cpu.commit.numCommittedDist::0        10550890     34.91%     34.91% # Number of insts commited each cycle (Count)
system.cpu.commit.numCommittedDist::1         5008062     16.57%     51.48% # Number of insts commited each cycle (Count)
system.cpu.commit.numCommittedDist::2         3679588     12.18%     63.66% # Number of insts commited each cycle (Count)
system.cpu.commit.numCommittedDist::3         4396744     14.55%     78.20% # Number of insts commited each cycle (Count)
system.cpu.commit.numCommittedDist::4         1382077      4.57%     82.78% # Number of insts commited each cycle (Count)
system.cpu.commit.numCommittedDist::5          972303      3.22%     85.99% # Number of insts commited each cycle (Count)
system.cpu.commit.numCommittedDist::6         1011983      3.35%     89.34% # Number of insts commited each cycle (Count)
system.cpu.commit.numCommittedDist::7          348036      1.15%     90.49% # Number of insts commited each cycle (Count)
system.cpu.commit.numCommittedDist::8         2872748      9.51%    100.00% # Number of insts commited each cycle (Count)
system.cpu.commit.numCommittedDist::overflows            0      0.00%    100.00% # Number of insts commited each cycle (Count)
system.cpu.commit.numCommittedDist::min_value            0                       # Number of insts commited each cycle (Count)
system.cpu.commit.numCommittedDist::max_value            8                       # Number of insts commited each cycle (Count)
system.cpu.commit.numCommittedDist::total     30222431                       # Number of insts commited each cycle (Count)
system.cpu.commit.amos                              0                       # Number of atomic instructions committed (Count)
system.cpu.commit.membars                           0                       # Number of memory barriers committed (Count)
system.cpu.commit.committedInstType_0::No_OpClass       822846      1.22%      1.22% # Class of committed instruction (Count)
system.cpu.commit.committedInstType_0::IntAlu     49609596     73.56%     74.78% # Class of committed instruction (Count)
system.cpu.commit.committedInstType_0::IntMult       119867      0.18%     74.96% # Class of committed instruction (Count)
system.cpu.commit.committedInstType_0::IntDiv       562394      0.83%     75.80% # Class of committed instruction (Count)
system.cpu.commit.committedInstType_0::FloatAdd       375862      0.56%     76.35% # Class of committed instruction (Count)
system.cpu.commit.committedInstType_0::FloatCmp            0      0.00%     76.35% # Class of committed instruction (Count)
system.cpu.commit.committedInstType_0::FloatCvt            0      0.00%     76.35% # Class of committed instruction (Count)
system.cpu.commit.committedInstType_0::FloatMult            0      0.00%     76.35% # Class of committed instruction (Count)
system.cpu.commit.committedInstType_0::FloatMultAcc            0      0.00%     76.35% # Class of committed instruction (Count)
system.cpu.commit.committedInstType_0::FloatDiv            0      0.00%     76.35% # Class of committed instruction (Count)
system.cpu.commit.committedInstType_0::FloatMisc            0      0.00%     76.35% # Class of committed instruction (Count)
system.cpu.commit.committedInstType_0::FloatSqrt            0      0.00%     76.35% # Class of committed instruction (Count)
system.cpu.commit.committedInstType_0::SimdAdd            0      0.00%     76.35% # Class of committed instruction (Count)
system.cpu.commit.committedInstType_0::SimdAddAcc            0      0.00%     76.35% # Class of committed instruction (Count)
system.cpu.commit.committedInstType_0::SimdAlu       659524      0.98%     77.33% # Class of committed instruction (Count)
system.cpu.commit.committedInstType_0::SimdCmp            0      0.00%     77.33% # Class of committed instruction (Count)
system.cpu.commit.committedInstType_0::SimdCvt        81964      0.12%     77.45% # Class of committed instruction (Count)
system.cpu.commit.committedInstType_0::SimdMisc       265138      0.39%     77.85% # Class of committed instruction (Count)
system.cpu.commit.committedInstType_0::SimdMult            0      0.00%     77.85% # Class of committed instruction (Count)
system.cpu.commit.committedInstType_0::SimdMultAcc            0      0.00%     77.85% # Class of committed instruction (Count)
system.cpu.commit.committedInstType_0::SimdMatMultAcc            0      0.00%     77.85% # Class of committed instruction (Count)
system.cpu.commit.committedInstType_0::SimdShift            0      0.00%     77.85% # Class of committed instruction (Count)
system.cpu.commit.committedInstType_0::SimdShiftAcc            0      0.00%     77.85% # Class of committed instruction (Count)
system.cpu.commit.committedInstType_0::SimdDiv            0      0.00%     77.85% # Class of committed instruction (Count)
system.cpu.commit.committedInstType_0::SimdSqrt            0      0.00%     77.85% # Class of committed instruction (Count)
system.cpu.commit.committedInstType_0::SimdFloatAdd       590435      0.88%     78.72% # Class of committed instruction (Count)
system.cpu.commit.committedInstType_0::SimdFloatAlu            0      0.00%     78.72% # Class of committed instruction (Count)
system.cpu.commit.committedInstType_0::SimdFloatCmp            0      0.00%     78.72% # Class of committed instruction (Count)
system.cpu.commit.committedInstType_0::SimdFloatCvt       375486      0.56%     79.28% # Class of committed instruction (Count)
system.cpu.commit.committedInstType_0::SimdFloatDiv           12      0.00%     79.28% # Class of committed instruction (Count)
system.cpu.commit.committedInstType_0::SimdFloatMisc            0      0.00%     79.28% # Class of committed instruction (Count)
system.cpu.commit.committedInstType_0::SimdFloatMult       430521      0.64%     79.92% # Class of committed instruction (Count)
system.cpu.commit.committedInstType_0::SimdFloatMultAcc            0      0.00%     79.92% # Class of committed instruction (Count)
[...]
system.mem_ctrl.dram.perBankRdBursts::7           209                       # Per bank write bursts (Count)
system.mem_ctrl.dram.perBankRdBursts::8           119                       # Per bank write bursts (Count)
system.mem_ctrl.dram.perBankRdBursts::9            33                       # Per bank write bursts (Count)
system.mem_ctrl.dram.perBankRdBursts::10           27                       # Per bank write bursts (Count)
system.mem_ctrl.dram.perBankRdBursts::11           43                       # Per bank write bursts (Count)
system.mem_ctrl.dram.perBankRdBursts::12           27                       # Per bank write bursts (Count)
system.mem_ctrl.dram.perBankRdBursts::13           68                       # Per bank write bursts (Count)
system.mem_ctrl.dram.perBankRdBursts::14           42                       # Per bank write bursts (Count)
system.mem_ctrl.dram.perBankRdBursts::15           64                       # Per bank write bursts (Count)
system.mem_ctrl.dram.perBankRdBursts::16          102                       # Per bank write bursts (Count)
system.mem_ctrl.dram.perBankRdBursts::17           64                       # Per bank write bursts (Count)
system.mem_ctrl.dram.perBankRdBursts::18            0                       # Per bank write bursts (Count)
system.mem_ctrl.dram.perBankRdBursts::19            1                       # Per bank write bursts (Count)
system.mem_ctrl.dram.perBankRdBursts::20            0                       # Per bank write bursts (Count)
system.mem_ctrl.dram.perBankRdBursts::21           14                       # Per bank write bursts (Count)
system.mem_ctrl.dram.perBankRdBursts::22           11                       # Per bank write bursts (Count)
system.mem_ctrl.dram.perBankRdBursts::23            0                       # Per bank write bursts (Count)
system.mem_ctrl.dram.perBankRdBursts::24           20                       # Per bank write bursts (Count)
system.mem_ctrl.dram.perBankRdBursts::25            5                       # Per bank write bursts (Count)
system.mem_ctrl.dram.perBankRdBursts::26            4                       # Per bank write bursts (Count)
system.mem_ctrl.dram.perBankRdBursts::27           96                       # Per bank write bursts (Count)
system.mem_ctrl.dram.perBankRdBursts::28           52                       # Per bank write bursts (Count)
system.mem_ctrl.dram.perBankRdBursts::29           71                       # Per bank write bursts (Count)
system.mem_ctrl.dram.perBankRdBursts::30           23                       # Per bank write bursts (Count)
system.mem_ctrl.dram.perBankRdBursts::31          107                       # Per bank write bursts (Count)
system.mem_ctrl.dram.perBankWrBursts::0             0                       # Per bank write bursts (Count)
system.mem_ctrl.dram.perBankWrBursts::1             0                       # Per bank write bursts (Count)
system.mem_ctrl.dram.perBankWrBursts::2             0                       # Per bank write bursts (Count)
system.mem_ctrl.dram.perBankWrBursts::3             0                       # Per bank write bursts (Count)
system.mem_ctrl.dram.perBankWrBursts::4             0                       # Per bank write bursts (Count)
system.mem_ctrl.dram.perBankWrBursts::5             0                       # Per bank write bursts (Count)
system.mem_ctrl.dram.perBankWrBursts::6             0                       # Per bank write bursts (Count)
system.mem_ctrl.dram.perBankWrBursts::7             0                       # Per bank write bursts (Count)
system.mem_ctrl.dram.perBankWrBursts::8             0                       # Per bank write bursts (Count)
system.mem_ctrl.dram.perBankWrBursts::9             0                       # Per bank write bursts (Count)
system.mem_ctrl.dram.perBankWrBursts::10            0                       # Per bank write bursts (Count)
system.mem_ctrl.dram.perBankWrBursts::11            0                       # Per bank write bursts (Count)
system.mem_ctrl.dram.perBankWrBursts::12            0                       # Per bank write bursts (Count)
system.mem_ctrl.dram.perBankWrBursts::13            0                       # Per bank write bursts (Count)
system.mem_ctrl.dram.perBankWrBursts::14            0                       # Per bank write bursts (Count)
system.mem_ctrl.dram.perBankWrBursts::15            0                       # Per bank write bursts (Count)
system.mem_ctrl.dram.perBankWrBursts::16            0                       # Per bank write bursts (Count)
system.mem_ctrl.dram.perBankWrBursts::17            0                       # Per bank write bursts (Count)
system.mem_ctrl.dram.perBankWrBursts::18            0                       # Per bank write bursts (Count)
system.mem_ctrl.dram.perBankWrBursts::19            0                       # Per bank write bursts (Count)
system.mem_ctrl.dram.perBankWrBursts::20            0                       # Per bank write bursts (Count)
system.mem_ctrl.dram.perBankWrBursts::21            0                       # Per bank write bursts (Count)
system.mem_ctrl.dram.perBankWrBursts::22            0                       # Per bank write bursts (Count)
system.mem_ctrl.dram.perBankWrBursts::23            0                       # Per bank write bursts (Count)
system.mem_ctrl.dram.perBankWrBursts::24            0                       # Per bank write bursts (Count)
system.mem_ctrl.dram.perBankWrBursts::25            0                       # Per bank write bursts (Count)
system.mem_ctrl.dram.perBankWrBursts::26            0                       # Per bank write bursts (Count)
system.mem_ctrl.dram.perBankWrBursts::27            0                       # Per bank write bursts (Count)
system.mem_ctrl.dram.perBankWrBursts::28            0                       # Per bank write bursts (Count)
system.mem_ctrl.dram.perBankWrBursts::29            0                       # Per bank write bursts (Count)
system.mem_ctrl.dram.perBankWrBursts::30            0                       # Per bank write bursts (Count)
system.mem_ctrl.dram.perBankWrBursts::31            0                       # Per bank write bursts (Count)
system.mem_ctrl.dram.totQLat                 31473555                       # Total ticks spent queuing (Tick)
system.mem_ctrl.dram.totBusLat                8369984                       # Total ticks spent in databus transfers (Tick)
system.mem_ctrl.dram.totMemAccLat            75413459                       # Total ticks spent from burst creation until serviced by the DRAM (Tick)
system.mem_ctrl.dram.avgQLat                 12529.28                       # Average queueing delay per DRAM burst ((Tick/Count))
system.mem_ctrl.dram.avgBusLat                3332.00                       # Average bus latency per DRAM burst ((Tick/Count))
system.mem_ctrl.dram.avgMemAccLat            30021.28                       # Average memory access latency per DRAM burst ((Tick/Count))
system.mem_ctrl.dram.readRowHits                 2006                       # Number of row buffer hits during reads (Count)
system.mem_ctrl.dram.writeRowHits                   0                       # Number of row buffer hits during writes (Count)
system.mem_ctrl.dram.readRowHitRate             79.86                       # Row buffer hit rate for reads (Ratio)
system.mem_ctrl.dram.writeRowHitRate              nan                       # Row buffer hit rate for writes (Ratio)
system.mem_ctrl.dram.bytesPerActivate::samples          499                       # Bytes accessed per row activation (Byte)
system.mem_ctrl.dram.bytesPerActivate::mean   318.460922                       # Bytes accessed per row activation (Byte)
system.mem_ctrl.dram.bytesPerActivate::gmean   200.126697                       # Bytes accessed per row activation (Byte)
system.mem_ctrl.dram.bytesPerActivate::stdev   312.532453                       # Bytes accessed per row activation (Byte)
system.mem_ctrl.dram.bytesPerActivate::0-127          148     29.66%     29.66% # Bytes accessed per row activation (Byte)
system.mem_ctrl.dram.bytesPerActivate::128-255          129     25.85%     55.51% # Bytes accessed per row activation (Byte)
system.mem_ctrl.dram.bytesPerActivate::256-383           64     12.83%     68.34% # Bytes accessed per row activation (Byte)
system.mem_ctrl.dram.bytesPerActivate::384-511           44      8.82%     77.15% # Bytes accessed per row activation (Byte)
system.mem_ctrl.dram.bytesPerActivate::512-639           26      5.21%     82.36% # Bytes accessed per row activation (Byte)
system.mem_ctrl.dram.bytesPerActivate::640-767           19      3.81%     86.17% # Bytes accessed per row activation (Byte)
system.mem_ctrl.dram.bytesPerActivate::768-895            9      1.80%     87.98% # Bytes accessed per row activation (Byte)
system.mem_ctrl.dram.bytesPerActivate::896-1023            6      1.20%     89.18% # Bytes accessed per row activation (Byte)
system.mem_ctrl.dram.bytesPerActivate::1024-1151           54     10.82%    100.00% # Bytes accessed per row activation (Byte)
system.mem_ctrl.dram.bytesPerActivate::total          499                       # Bytes accessed per row activation (Byte)
system.mem_ctrl.dram.dramBytesRead             160768                       # Total bytes read (Byte)
system.mem_ctrl.dram.dramBytesWritten               0                       # Total bytes written (Byte)
system.mem_ctrl.dram.avgRdBW                12.799008                       # Average DRAM read bandwidth in MiBytes/s ((Byte/Second))
system.mem_ctrl.dram.avgWrBW                        0                       # Average DRAM write bandwidth in MiBytes/s ((Byte/Second))
system.mem_ctrl.dram.peakBW                  19207.00                       # Theoretical peak bandwidth in MiByte/s ((Byte/Second))
system.mem_ctrl.dram.busUtil                     0.07                       # Data bus utilization in percentage (Ratio)
system.mem_ctrl.dram.busUtilRead                 0.07                       # Data bus utilization in percentage for reads (Ratio)
system.mem_ctrl.dram.busUtilWrite                0.00                       # Data bus utilization in percentage for writes (Ratio)
system.mem_ctrl.dram.pageHitRate                79.86                       # Row buffer hit rate, read and write combined (Ratio)
system.mem_ctrl.dram.power_state.pwrStateResidencyTicks::UNDEFINED  12560973600                       # Cumulative time (in ticks) in various power states (Tick)
system.mem_ctrl.dram.rank0.actEnergy     631547.280000                       # Energy for activate commands per rank (pJ) (Joule)
system.mem_ctrl.dram.rank0.preEnergy     1103912.258400                       # Energy for precharge commands per rank (pJ) (Joule)
system.mem_ctrl.dram.rank0.readEnergy    5326716.460800                       # Energy for read commands per rank (pJ) (Joule)
system.mem_ctrl.dram.rank0.writeEnergy              0                       # Energy for write commands per rank (pJ) (Joule)
system.mem_ctrl.dram.rank0.refreshEnergy 1090155001.504805                       # Energy for refresh commands per rank (pJ) (Joule)
system.mem_ctrl.dram.rank0.actBackEnergy 832743127.456768                       # Energy for active background per rank (pJ) (Joule)
system.mem_ctrl.dram.rank0.preBackEnergy 3525013126.521548                       # Energy for precharge background per rank (pJ) (Joule)
system.mem_ctrl.dram.rank0.actPowerDownEnergy            0                       # Energy for active power-down per rank (pJ) (Joule)
system.mem_ctrl.dram.rank0.prePowerDownEnergy            0                       # Energy for precharge power-down per rank (pJ) (Joule)
system.mem_ctrl.dram.rank0.selfRefreshEnergy            0                       # Energy for self refresh per rank (pJ) (Joule)
system.mem_ctrl.dram.rank0.totalEnergy   5454973431.482397                       # Total energy per rank (pJ) (Joule)
system.mem_ctrl.dram.rank0.averagePower    434.279508                       # Core power per rank (mW) (Watt)
system.mem_ctrl.dram.rank0.totalIdleTime            0                       # Total Idle time Per DRAM Rank (Tick)
system.mem_ctrl.dram.rank0.pwrStateTime::IDLE  10774525730                       # Time in different power states (Tick)
system.mem_ctrl.dram.rank0.pwrStateTime::REF    564550000                       # Time in different power states (Tick)
system.mem_ctrl.dram.rank0.pwrStateTime::SREF            0                       # Time in different power states (Tick)
system.mem_ctrl.dram.rank0.pwrStateTime::PRE_PDN            0                       # Time in different power states (Tick)
system.mem_ctrl.dram.rank0.pwrStateTime::ACT   1221897870                       # Time in different power states (Tick)
system.mem_ctrl.dram.rank0.pwrStateTime::ACT_PDN            0                       # Time in different power states (Tick)
system.mem_ctrl.dram.rank1.actEnergy     157496.976000                       # Energy for activate commands per rank (pJ) (Joule)
system.mem_ctrl.dram.rank1.preEnergy     269784.043200                       # Energy for precharge commands per rank (pJ) (Joule)
system.mem_ctrl.dram.rank1.readEnergy    1563454.368000                       # Energy for read commands per rank (pJ) (Joule)
system.mem_ctrl.dram.rank1.writeEnergy              0                       # Energy for write commands per rank (pJ) (Joule)
system.mem_ctrl.dram.rank1.refreshEnergy 1090155001.504805                       # Energy for refresh commands per rank (pJ) (Joule)
system.mem_ctrl.dram.rank1.actBackEnergy 323977121.294399                       # Energy for active background per rank (pJ) (Joule)
system.mem_ctrl.dram.rank1.preBackEnergy 3876242450.572733                       # Energy for precharge background per rank (pJ) (Joule)
system.mem_ctrl.dram.rank1.actPowerDownEnergy            0                       # Energy for active power-down per rank (pJ) (Joule)
system.mem_ctrl.dram.rank1.prePowerDownEnergy            0                       # Energy for precharge power-down per rank (pJ) (Joule)
system.mem_ctrl.dram.rank1.selfRefreshEnergy            0                       # Energy for self refresh per rank (pJ) (Joule)
system.mem_ctrl.dram.rank1.totalEnergy   5292365308.759187                       # Total energy per rank (pJ) (Joule)
system.mem_ctrl.dram.rank1.averagePower    421.334005                       # Core power per rank (mW) (Watt)
system.mem_ctrl.dram.rank1.totalIdleTime            0                       # Total Idle time Per DRAM Rank (Tick)
system.mem_ctrl.dram.rank1.pwrStateTime::IDLE  11853605868                       # Time in different power states (Tick)
system.mem_ctrl.dram.rank1.pwrStateTime::REF    564550000                       # Time in different power states (Tick)
system.mem_ctrl.dram.rank1.pwrStateTime::SREF            0                       # Time in different power states (Tick)
system.mem_ctrl.dram.rank1.pwrStateTime::PRE_PDN            0                       # Time in different power states (Tick)
system.mem_ctrl.dram.rank1.pwrStateTime::ACT    142817732                       # Time in different power states (Tick)
system.mem_ctrl.dram.rank1.pwrStateTime::ACT_PDN            0                       # Time in different power states (Tick)
system.mem_ctrl.power_state.pwrStateResidencyTicks::UNDEFINED  12560973600                       # Cumulative time (in ticks) in various power states (Tick)
system.membus.transDist::ReadResp                1825                       # Transaction distribution (Count)
system.membus.transDist::ReadExReq                687                       # Transaction distribution (Count)
system.membus.transDist::ReadExResp               687                       # Transaction distribution (Count)
system.membus.transDist::ReadSharedReq           1825                       # Transaction distribution (Count)
system.membus.pktCount_system.l3cache.mem_side_port::system.mem_ctrl.port         5024                       # Packet count per connected requestor and responder (Count)
system.membus.pktCount_system.l3cache.mem_side_port::total         5024                       # Packet count per connected requestor and responder (Count)
system.membus.pktCount::total                    5024                       # Packet count per connected requestor and responder (Count)
system.membus.pktSize_system.l3cache.mem_side_port::system.mem_ctrl.port       160768                       # Cumulative packet size per connected requestor and responder (Byte)
system.membus.pktSize_system.l3cache.mem_side_port::total       160768                       # Cumulative packet size per connected requestor and responder (Byte)
system.membus.pktSize::total                   160768                       # Cumulative packet size per connected requestor and responder (Byte)
system.membus.snoops                                0                       # Total snoops (Count)
system.membus.snoopTraffic                          0                       # Total snoop traffic (Byte)
system.membus.snoopFanout::samples               2512                       # Request fanout histogram (Count)
system.membus.snoopFanout::mean                     0                       # Request fanout histogram (Count)
system.membus.snoopFanout::stdev                    0                       # Request fanout histogram (Count)
system.membus.snoopFanout::underflows               0      0.00%      0.00% # Request fanout histogram (Count)
system.membus.snoopFanout::0                     2512    100.00%    100.00% # Request fanout histogram (Count)
system.membus.snoopFanout::1                        0      0.00%    100.00% # Request fanout histogram (Count)
system.membus.snoopFanout::overflows                0      0.00%    100.00% # Request fanout histogram (Count)
system.membus.snoopFanout::min_value                0                       # Request fanout histogram (Count)
system.membus.snoopFanout::max_value                0                       # Request fanout histogram (Count)
system.membus.snoopFanout::total                 2512                       # Request fanout histogram (Count)
system.membus.power_state.pwrStateResidencyTicks::UNDEFINED  12560973600                       # Cumulative time (in ticks) in various power states (Tick)
system.membus.reqLayer2.occupancy             1047883                       # Layer occupancy (ticks) (Tick)
system.membus.reqLayer2.utilization               0.0                       # Layer utilization (Ratio)
system.membus.respLayer0.occupancy            2350013                       # Layer occupancy (ticks) (Tick)
system.membus.respLayer0.utilization              0.0                       # Layer utilization (Ratio)
system.membus.snoop_filter.totRequests           2512                       # Total number of requests made to the snoop filter. (Count)
system.membus.snoop_filter.hitSingleRequests            0                       # Number of requests hitting in the snoop filter with a single holder of the requested data. (Count)
system.membus.snoop_filter.hitMultiRequests            0                       # Number of requests hitting in the snoop filter with multiple (>1) holders of the requested data. (Count)
system.membus.snoop_filter.totSnoops                0                       # Total number of snoops made to the snoop filter. (Count)
system.membus.snoop_filter.hitSingleSnoops            0                       # Number of snoops hitting in the snoop filter with a single holder of the requested data. (Count)
system.membus.snoop_filter.hitMultiSnoops            0                       # Number of snoops hitting in the snoop filter with multiple (>1) holders of the requested data. (Count)
system.workload.inst.arm                            0                       # number of arm instructions executed (Count)
system.workload.inst.quiesce                        0                       # number of quiesce instructions executed (Count)

---------- End Simulation Statistics   ----------
