warn: Base 10 memory/cache size 8GB will be cast to base 2 size 8GiB.
warn: Base 10 memory/cache size 32kB will be cast to base 2 size 32KiB.
warn: Base 10 memory/cache size 32kB will be cast to base 2 size 32KiB.
warn: Base 10 memory/cache size 512kB will be cast to base 2 size 512KiB.
warn: Base 10 memory/cache size 32MB will be cast to base 2 size 32MiB.
warn: Base 10 memory/cache size 64MB will be cast to base 2 size 64MiB.
Global frequency set at 1000000000000 ticks per second
warn: No dot file generated. Please install pydot to generate the dot file and pdf.
src/mem/dram_interface.cc:690: warn: DRAM device capacity (16384 Mbytes) does not match the address range assigned (8192 Mbytes)
src/base/statistics.hh:279: warn: One of the stats is a legacy stat. Legacy stat is a stat that does not belong to any statistics::Group. Legacy stat is deprecated.
src/base/stats/storage.hh:278: warn: Bucket size (4) does not divide range [1:32] into equal-sized buckets. Rounding up.
src/base/stats/storage.hh:278: warn: Bucket size (4) does not divide range [1:8] into equal-sized buckets. Rounding up.
system.remote_gdb: Listening for connections on port 7000
gem5 Simulator System.  https://www.gem5.org
gem5 is copyrighted software; use the --copyright option for details.

gem5 version 25.1.0.0
gem5 compiled Apr  4 2026 22:44:57
gem5 started Apr 12 2026 14:22:58
gem5 executing on c308-005.ls6.tacc.utexas.edu, pid 2318078
command line: ../gem5/build/X86/gem5.opt --outdir=../data/gem5/dijkstra_small ../config/perftrain/zen3_config.py --bin=../benchmarks/bin/mibench/dijkstra_small --opts=../benchmarks/bin/mibench/inputs/dijkstra_input.dat --max_insts=0

=== Starting simulation ===
  Binary: ../benchmarks/bin/mibench/dijkstra_small
  Args:   ../benchmarks/bin/mibench/inputs/dijkstra_input.dat
  CPU:    O3CPU @ 2.45 GHz (Zen 3 Configuration)
src/sim/mem_state.cc:443: info: Increasing stack size by one page.
src/sim/syscall_emul.hh:1127: warn: readlink() called on '/proc/self/exe' may yield unexpected results in various settings.
      Returning '/work/10492/bv6788/ls6/CPU_PERF_EVAL/FINAL_PROJECT/benchmarks/bin/mibench/dijkstra_small'
Shortest path is 1 in cost. Path is:  0 41 45 51 50
Shortest path is 0 in cost. Path is:  1 58 57 20 40 17 65 73 36 46 10 38 41 45 51
Shortest path is 1 in cost. Path is:  2 71 47 79 23 77 1 58 57 20 40 17 52
Shortest path is 2 in cost. Path is:  3 53
Shortest path is 1 in cost. Path is:  4 85 83 58 33 13 19 79 23 77 1 54
Shortest path is 3 in cost. Path is:  5 26 23 77 1 58 99 3 21 70 55
Shortest path is 3 in cost. Path is:  6 42 80 77 1 58 99 3 21 70 55 56
Shortest path is 0 in cost. Path is:  7 17 65 73 36 46 10 58 57
Shortest path is 0 in cost. Path is:  8 37 63 72 46 10 58
Shortest path is 1 in cost. Path is:  9 33 13 19 79 23 77 1 59
Shortest path is 0 in cost. Path is:  10 60
Shortest path is 5 in cost. Path is:  11 22 20 40 17 65 73 36 46 10 29 61
Shortest path is 0 in cost. Path is:  12 37 63 72 46 10 58 99 3 21 70 62
Shortest path is 0 in cost. Path is:  13 19 79 23 77 1 58 99 3 21 70 55 12 37 63
Shortest path is 1 in cost. Path is:  14 38 41 45 51 68 2 71 47 79 23 77 1 58 33 13 92 64
Shortest path is 1 in cost. Path is:  15 13 92 94 11 22 20 40 17 65
Shortest path is 3 in cost. Path is:  16 41 45 51 68 2 71 47 79 23 77 1 58 33 32 66
Shortest path is 0 in cost. Path is:  17 65 73 36 46 10 58 33 13 19 79 23 91 67
Shortest path is 1 in cost. Path is:  18 15 41 45 51 68
Shortest path is 2 in cost. Path is:  19 69
=== Simulation complete ===
  Exit cause: exiting with last active thread context
  Simulated ticks: 11936972688
