warn: Base 10 memory/cache size 8GB will be cast to base 2 size 8GiB.
warn: Base 10 memory/cache size 32kB will be cast to base 2 size 32KiB.
warn: Base 10 memory/cache size 32kB will be cast to base 2 size 32KiB.
warn: Base 10 memory/cache size 512kB will be cast to base 2 size 512KiB.
warn: Base 10 memory/cache size 32MB will be cast to base 2 size 32MiB.
warn: Base 10 memory/cache size 64MB will be cast to base 2 size 64MiB.
Global frequency set at 1000000000000 ticks per second
warn: No dot file generated. Please install pydot to generate the dot file and pdf.
src/mem/dram_interface.cc:690: warn: DRAM device capacity (16384 Mbytes) does not match the address range assigned (8192 Mbytes)
src/base/statistics.hh:279: warn: One of the stats is a legacy stat. Legacy stat is a stat that does not belong to any statistics::Group. Legacy stat is deprecated.
src/base/stats/storage.hh:278: warn: Bucket size (4) does not divide range [1:32] into equal-sized buckets. Rounding up.
src/base/stats/storage.hh:278: warn: Bucket size (4) does not divide range [1:8] into equal-sized buckets. Rounding up.
system.remote_gdb: Listening for connections on port 7000
gem5 Simulator System.  https://www.gem5.org
gem5 is copyrighted software; use the --copyright option for details.

gem5 version 25.1.0.0
gem5 compiled Apr  4 2026 22:44:57
gem5 started Apr 14 2026 00:13:51
gem5 executing on c303-005.ls6.tacc.utexas.edu, pid 3218076
command line: ../gem5/build/X86/gem5.opt --outdir=../data/gem5/crc_large ../config/perftrain/zen3_config.py --bin=../benchmarks/bin/mibench/crc --opts=../benchmarks/bin/mibench/inputs/large.pcm --max_insts=0

=== Starting simulation ===
  Binary: ../benchmarks/bin/mibench/crc
  Args:   ../benchmarks/bin/mibench/inputs/large.pcm
  CPU:    O3CPU @ 2.45 GHz (Zen 3 Configuration)
src/sim/mem_state.cc:443: info: Increasing stack size by one page.
src/sim/syscall_emul.hh:1127: warn: readlink() called on '/proc/self/exe' may yield unexpected results in various settings.
      Returning '/work/10492/bv6788/ls6/CPU_PERF_EVAL/FINAL_PROJECT/benchmarks/bin/mibench/crc'
FFFFFFFFDC8B7C2A 26611200 ../benchmarks/bin/mibench/inputs/large.pcm
=== Simulation complete ===
  Exit cause: exiting with last active thread context
  Simulated ticks: 315196515840
