warn: Base 10 memory/cache size 8GB will be cast to base 2 size 8GiB.
warn: Base 10 memory/cache size 32kB will be cast to base 2 size 32KiB.
warn: Base 10 memory/cache size 32kB will be cast to base 2 size 32KiB.
warn: Base 10 memory/cache size 512kB will be cast to base 2 size 512KiB.
warn: Base 10 memory/cache size 32MB will be cast to base 2 size 32MiB.
warn: Base 10 memory/cache size 512MB will be cast to base 2 size 512MiB.
Global frequency set at 1000000000000 ticks per second
warn: No dot file generated. Please install pydot to generate the dot file and pdf.
src/mem/dram_interface.cc:690: warn: DRAM device capacity (16384 Mbytes) does not match the address range assigned (8192 Mbytes)
src/base/statistics.hh:279: warn: One of the stats is a legacy stat. Legacy stat is a stat that does not belong to any statistics::Group. Legacy stat is deprecated.
src/base/stats/storage.hh:278: warn: Bucket size (4) does not divide range [1:32] into equal-sized buckets. Rounding up.
src/base/stats/storage.hh:278: warn: Bucket size (4) does not divide range [1:8] into equal-sized buckets. Rounding up.
system.remote_gdb: Listening for connections on port 7000
gem5 Simulator System.  https://www.gem5.org
gem5 is copyrighted software; use the --copyright option for details.

gem5 version 25.1.0.0
gem5 compiled Apr  4 2026 22:44:57
gem5 started Apr 17 2026 12:36:54
gem5 executing on c306-005.ls6.tacc.utexas.edu, pid 3268467
command line: ../gem5/build/X86/gem5.opt --outdir=../data/gem5/sha_large ../config/perftrain/zen3_config.py --bin=../benchmarks/bin/mibench/sha --opts=../benchmarks/bin/mibench/inputs/sha_input_large.asc --max_insts=0

=== Starting simulation ===
  Binary: ../benchmarks/bin/mibench/sha
  Args:   ../benchmarks/bin/mibench/inputs/sha_input_large.asc
  CPU:    O3CPU @ 2.45 GHz (Zen 3 Configuration)
Warming up for 10,000,000 instructions...
src/sim/mem_state.cc:443: info: Increasing stack size by one page.
src/base/loader/symtab.cc:95: warn: Cannot insert a new symbol table due to name collisions. Adding prefix to each symbol's name can resolve this issue.
src/sim/syscall_emul.cc:86: warn: ignoring syscall mprotect(...)
src/base/loader/symtab.cc:95: warn: Cannot insert a new symbol table due to name collisions. Adding prefix to each symbol's name can resolve this issue.
src/sim/syscall_emul.cc:86: warn: ignoring syscall mprotect(...)
src/sim/syscall_emul.cc:86: warn: ignoring syscall mprotect(...)
src/sim/syscall_emul.cc:86: warn: ignoring syscall mprotect(...)
src/sim/mem_state.cc:443: info: Increasing stack size by one page.
Warmup done: a thread reached the max instruction count
Starting measured run of ../benchmarks/bin/mibench/sha ...
a929c824851a8aa5 c3f54001006fdfda b0185d687843164b 2b73cb3196dced1e 6099041b1bcc6ce3
=== Simulation complete ===
  Exit @ tick 23933397504 because exiting with last active thread context
  Simulated ticks: 23933397504
