warn: Base 10 memory/cache size 8GB will be cast to base 2 size 8GiB.
warn: Base 10 memory/cache size 32kB will be cast to base 2 size 32KiB.
warn: Base 10 memory/cache size 32kB will be cast to base 2 size 32KiB.
warn: Base 10 memory/cache size 512kB will be cast to base 2 size 512KiB.
warn: Base 10 memory/cache size 32MB will be cast to base 2 size 32MiB.
warn: Base 10 memory/cache size 64MB will be cast to base 2 size 64MiB.
Global frequency set at 1000000000000 ticks per second
warn: No dot file generated. Please install pydot to generate the dot file and pdf.
src/mem/dram_interface.cc:690: warn: DRAM device capacity (16384 Mbytes) does not match the address range assigned (8192 Mbytes)
src/base/statistics.hh:279: warn: One of the stats is a legacy stat. Legacy stat is a stat that does not belong to any statistics::Group. Legacy stat is deprecated.
src/base/stats/storage.hh:278: warn: Bucket size (4) does not divide range [1:32] into equal-sized buckets. Rounding up.
src/base/stats/storage.hh:278: warn: Bucket size (4) does not divide range [1:8] into equal-sized buckets. Rounding up.
system.remote_gdb: Listening for connections on port 7000
gem5 Simulator System.  https://www.gem5.org
gem5 is copyrighted software; use the --copyright option for details.

gem5 version 25.1.0.0
gem5 compiled Apr  4 2026 22:44:57
gem5 started Apr 15 2026 16:29:09
gem5 executing on c304-006.ls6.tacc.utexas.edu, pid 2333925
command line: ../gem5/build/X86/gem5.opt --outdir=../data/gem5/fluidanimate ../config/perftrain/zen3_config.py --bin=../benchmarks/bin/parsec/fluidanimate '--opts=1 5 ../benchmarks/bin/parsec/inputs/in_100K.fluid ../benchmarks/bin/parsec/inputs/out.fluid' --max_insts=0

=== Starting simulation ===
  Binary: ../benchmarks/bin/parsec/fluidanimate
  Args:   1 5 ../benchmarks/bin/parsec/inputs/in_100K.fluid ../benchmarks/bin/parsec/inputs/out.fluid
  CPU:    O3CPU @ 2.45 GHz (Zen 3 Configuration)
src/sim/mem_state.cc:443: info: Increasing stack size by one page.
src/sim/syscall_emul.cc:86: warn: ignoring syscall mprotect(...)
src/sim/syscall_emul.cc:86: warn: ignoring syscall mprotect(...)
src/sim/syscall_emul.cc:86: warn: ignoring syscall mprotect(...)
src/base/loader/symtab.cc:95: warn: Cannot insert a new symbol table due to name collisions. Adding prefix to each symbol's name can resolve this issue.
src/sim/syscall_emul.cc:86: warn: ignoring syscall mprotect(...)
src/base/loader/symtab.cc:95: warn: Cannot insert a new symbol table due to name collisions. Adding prefix to each symbol's name can resolve this issue.
src/base/loader/symtab.cc:95: warn: Cannot insert a new symbol table due to name collisions. Adding prefix to each symbol's name can resolve this issue.
src/sim/syscall_emul.cc:86: warn: ignoring syscall mprotect(...)
src/base/loader/symtab.cc:95: warn: Cannot insert a new symbol table due to name collisions. Adding prefix to each symbol's name can resolve this issue.
src/sim/syscall_emul.cc:86: warn: ignoring syscall mprotect(...)
src/sim/syscall_emul.cc:86: warn: ignoring syscall mprotect(...)
src/sim/syscall_emul.cc:86: warn: ignoring syscall mprotect(...)
src/sim/syscall_emul.cc:86: warn: ignoring syscall mprotect(...)
src/sim/syscall_emul.cc:86: warn: ignoring syscall mprotect(...)
src/sim/syscall_emul.cc:86: warn: ignoring syscall mprotect(...)
src/sim/syscall_emul.cc:86: warn: ignoring syscall mprotect(...)
src/sim/syscall_emul.cc:86: warn: ignoring syscall set_robust_list(...)
src/sim/syscall_emul.cc:97: warn: ignoring syscall rt_sigaction(...)
      (further warnings will be suppressed)
src/sim/syscall_emul.cc:97: warn: ignoring syscall rt_sigprocmask(...)
      (further warnings will be suppressed)
PARSEC Benchmark Suite Version 3.0-beta-20150206
Loading file "../benchmarks/bin/parsec/inputs/in_100K.fluid"...
Number of cells: 46080
Grids steps over x, y, z: 0.0040625 0.004 0.0040625
