warn: Base 10 memory/cache size 8GB will be cast to base 2 size 8GiB.
warn: Base 10 memory/cache size 32kB will be cast to base 2 size 32KiB.
warn: Base 10 memory/cache size 32kB will be cast to base 2 size 32KiB.
warn: Base 10 memory/cache size 512kB will be cast to base 2 size 512KiB.
warn: Base 10 memory/cache size 32MB will be cast to base 2 size 32MiB.
warn: Base 10 memory/cache size 512MB will be cast to base 2 size 512MiB.
Global frequency set at 1000000000000 ticks per second
warn: No dot file generated. Please install pydot to generate the dot file and pdf.
src/mem/dram_interface.cc:690: warn: DRAM device capacity (16384 Mbytes) does not match the address range assigned (8192 Mbytes)
src/base/statistics.hh:279: warn: One of the stats is a legacy stat. Legacy stat is a stat that does not belong to any statistics::Group. Legacy stat is deprecated.
src/base/stats/storage.hh:278: warn: Bucket size (4) does not divide range [1:32] into equal-sized buckets. Rounding up.
src/base/stats/storage.hh:278: warn: Bucket size (4) does not divide range [1:8] into equal-sized buckets. Rounding up.
system.remote_gdb: Listening for connections on port 7000
gem5 Simulator System.  https://www.gem5.org
gem5 is copyrighted software; use the --copyright option for details.

gem5 version 25.1.0.0
gem5 compiled Apr  4 2026 22:44:57
gem5 started Apr 17 2026 12:43:09
gem5 executing on c306-005.ls6.tacc.utexas.edu, pid 3268480
command line: ../gem5/build/X86/gem5.opt --outdir=../data/gem5/rijndael_large ../config/perftrain/zen3_config.py --bin=../benchmarks/bin/mibench/rijndael '--opts=../benchmarks/bin/mibench/inputs/rijndael_input_large.asc rijndael_output_large.enc e 1234567890abcdeffedcba09876543211234567890abcdeffedcba0987654321' --max_insts=0

=== Starting simulation ===
  Binary: ../benchmarks/bin/mibench/rijndael
  Args:   ../benchmarks/bin/mibench/inputs/rijndael_input_large.asc rijndael_output_large.enc e 1234567890abcdeffedcba09876543211234567890abcdeffedcba0987654321
  CPU:    O3CPU @ 2.45 GHz (Zen 3 Configuration)
Warming up for 10,000,000 instructions...
src/sim/mem_state.cc:443: info: Increasing stack size by one page.
src/sim/syscall_emul.hh:1127: warn: readlink() called on '/proc/self/exe' may yield unexpected results in various settings.
      Returning '/work/10492/bv6788/ls6/CPU_PERF_EVAL/FINAL_PROJECT/benchmarks/bin/mibench/rijndael'
Warmup done: a thread reached the max instruction count
Starting measured run of ../benchmarks/bin/mibench/rijndael ...
=== Simulation complete ===
  Exit @ tick 54447166296 because exiting with last active thread context
  Simulated ticks: 54447166296
